version 2
run AODVUU-0-20160414-22:04:25-4828
attr configname AODVUU
attr datetime 20160414-22:04:25
attr experiment AODVUU
attr inifile omnetpp.ini
attr iterationvars ""
attr iterationvars2 $repetition=0
attr measurement ""
attr network MCProjectNetwork
attr processid 4828
attr repetition 0
attr replication #0
attr resultdir results
attr runnumber 0
attr seedset 0

scalar MCProjectNetwork 	hackForCreateResultsFolder 	0
scalar MCProjectNetwork.host[0].networkLayer.arp 	initiatedARPResolution:count 	0
attr title  "ARP initiated resolutions, count"
scalar MCProjectNetwork.host[0].networkLayer.arp 	sentReply:count 	0
attr title  "ARP replies sent, count"
scalar MCProjectNetwork.host[0].networkLayer.arp 	sentReq:count 	0
attr title  "ARP request sent, count"
scalar MCProjectNetwork.host[0].networkLayer.arp 	failedARPResolution:count 	0
attr title  "ARP failed resolutions, count"
scalar MCProjectNetwork.host[0].networkLayer.arp 	completedARPResolution:count 	0
attr title  "ARP completed resolutions, count"
scalar MCProjectNetwork.host[0].lo0.lo 	rcvdPkFromHL:count 	0
attr interpolationmode  none
attr source  packetReceivedFromUpper
attr title  "packets received from higher layer, count"
scalar MCProjectNetwork.host[0].lo0.lo 	rcvdPkFromHL:sum(packetBytes) 	0
attr interpolationmode  none
attr source  packetReceivedFromUpper
attr title  "packets received from higher layer, sum(packetBytes)"
scalar MCProjectNetwork.host[0].lo0.lo 	passedUpPk:count 	0
attr interpolationmode  none
attr source  packetSentToUpper
attr title  "packets passed to higher layer, count"
scalar MCProjectNetwork.host[0].lo0.lo 	passedUpPk:sum(packetBytes) 	0
attr interpolationmode  none
attr source  packetSentToUpper
attr title  "packets passed to higher layer, sum(packetBytes)"
scalar MCProjectNetwork.host[0].lo0.lo 	droppedPkBitError:count 	0
attr interpolationmode  none
attr source  dropPkBitError
attr title  "packets dropped/bit error, count"
scalar MCProjectNetwork.host[0].lo0.lo 	droppedPkBitError:sum(packetBytes) 	0
attr interpolationmode  none
attr source  dropPkBitError
attr title  "packets dropped/bit error, sum(packetBytes)"
scalar MCProjectNetwork.host[0].wlan[0].mgmt 	dropPkByQueue:count 	0
attr interpolationmode  none
attr source  dropPkByQueue
attr title  "packets dropped by queue, count"
scalar MCProjectNetwork.host[0].wlan[0].mgmt 	dropPkByQueue:sum(packetBytes) 	0
attr interpolationmode  none
attr source  dropPkByQueue
attr title  "packets dropped by queue, sum(packetBytes)"
scalar MCProjectNetwork.host[0].wlan[0].mgmt 	dataQueueLen:max 	0
attr interpolationmode  sample-hold
attr title  "data queue length, max"
scalar MCProjectNetwork.host[0].wlan[0].mgmt 	dataQueueLen:timeavg 	0
attr interpolationmode  sample-hold
attr title  "data queue length, timeavg"
scalar MCProjectNetwork.host[0].wlan[0].mac 	"number of received packets" 	0
scalar MCProjectNetwork.host[0].wlan[0].mac 	"number of collisions" 	3
scalar MCProjectNetwork.host[0].wlan[0].mac 	"number of internal collisions" 	0
scalar MCProjectNetwork.host[0].wlan[0].mac 	"number of retry for AC 0" 	0
scalar MCProjectNetwork.host[0].wlan[0].mac 	"sent and received bits" 	2256
scalar MCProjectNetwork.host[0].wlan[0].mac 	"sent packet within AC 0" 	0
scalar MCProjectNetwork.host[0].wlan[0].mac 	"sent in TXOP " 	0
scalar MCProjectNetwork.host[0].wlan[0].mac 	"sentWithoutRetry AC 0" 	0
scalar MCProjectNetwork.host[0].wlan[0].mac 	"numGivenUp AC 0" 	0
scalar MCProjectNetwork.host[0].wlan[0].mac 	"numDropped AC 0" 	0
scalar MCProjectNetwork.host[0].wlan[0].mac 	rcvdPkFromHL:count 	3
attr interpolationmode  none
attr source  packetReceivedFromUpper
attr title  "packets received from higher layer, count"
scalar MCProjectNetwork.host[0].wlan[0].mac 	rcvdPkFromHL:sum(packetBytes) 	282
attr interpolationmode  none
attr source  packetReceivedFromUpper
attr title  "packets received from higher layer, sum(packetBytes)"
scalar MCProjectNetwork.host[0].wlan[0].mac 	passedUpPk:count 	10
attr interpolationmode  none
attr source  packetSentToUpper
attr title  "packets passed to higher layer, count"
scalar MCProjectNetwork.host[0].wlan[0].mac 	passedUpPk:sum(packetBytes) 	940
attr interpolationmode  none
attr source  packetSentToUpper
attr title  "packets passed to higher layer, sum(packetBytes)"
scalar MCProjectNetwork.host[0].wlan[0].mac 	rcvdPkFromLL:count 	13
attr interpolationmode  none
attr source  packetReceivedFromLower
attr title  "packets received from lower layer, count"
scalar MCProjectNetwork.host[0].wlan[0].mac 	rcvdPkFromLL:sum(packetBytes) 	1222
attr interpolationmode  none
attr source  packetReceivedFromLower
attr title  "packets received from lower layer, sum(packetBytes)"
scalar MCProjectNetwork.host[0].wlan[0].mac 	sentDownPk:count 	3
attr interpolationmode  none
attr source  packetSentToLower
attr title  "packets sent to lower layer, count"
scalar MCProjectNetwork.host[0].wlan[0].mac 	sentDownPk:sum(packetBytes) 	282
attr interpolationmode  none
attr source  packetSentToLower
attr title  "packets sent to lower layer, sum(packetBytes)"
scalar MCProjectNetwork.host[0].wlan[0].radio 	lossRate:min 	nan
attr interpolationmode  backward-sample-hold
attr title  "packet loss rate, min"
scalar MCProjectNetwork.host[0].wlan[0].radio 	lossRate:max 	nan
attr interpolationmode  backward-sample-hold
attr title  "packet loss rate, max"
scalar MCProjectNetwork.host[0].wlan[0].radio 	lossRate:timeavg 	nan
attr interpolationmode  backward-sample-hold
attr title  "packet loss rate, timeavg"
statistic MCProjectNetwork.host[0].wlan[0].radio 	channelNo:histogram
field count 1
field mean 0
field stddev nan
field sum 0
field sqrsum 0
field min 0
field max 0
attr interpolationmode  sample-hold
attr title  "channel no, histogram"
bin	-INF	0
bin	-0.5	0
bin	-0.46666666666667	0
bin	-0.43333333333333	0
bin	-0.4	0
bin	-0.36666666666667	0
bin	-0.33333333333333	0
bin	-0.3	0
bin	-0.26666666666667	0
bin	-0.23333333333333	0
bin	-0.2	0
bin	-0.16666666666667	0
bin	-0.13333333333333	0
bin	-0.1	0
bin	-0.066666666666667	0
bin	-0.033333333333333	0
bin	-6.9388939039072e-018	1
bin	0.033333333333333	0
bin	0.066666666666667	0
bin	0.1	0
bin	0.13333333333333	0
bin	0.16666666666667	0
bin	0.2	0
bin	0.23333333333333	0
bin	0.26666666666667	0
bin	0.3	0
bin	0.33333333333333	0
bin	0.36666666666667	0
bin	0.4	0
bin	0.43333333333333	0
bin	0.46666666666667	0
bin	0.5	0
scalar MCProjectNetwork.host[0].wlan[0].radio 	radioState:count 	36
attr interpolationmode  sample-hold
attr title  "radio state (enum), count"
scalar MCProjectNetwork.host[0].wlan[0].radio 	bitrate:min 	2000000
attr interpolationmode  sample-hold
attr title  "tx bitrate, min"
attr unit  bps
scalar MCProjectNetwork.host[0].wlan[0].radio 	bitrate:max 	2000000
attr interpolationmode  sample-hold
attr title  "tx bitrate, max"
attr unit  bps
scalar MCProjectNetwork.host[0].wlan[0].radio 	bitrate:timeavg 	2000000
attr interpolationmode  sample-hold
attr title  "tx bitrate, timeavg"
attr unit  bps
scalar MCProjectNetwork.host[0].pingApp[0] 	"Pings sent" 	1
scalar MCProjectNetwork.host[0].pingApp[0] 	"ping loss rate (%)" 	100
scalar MCProjectNetwork.host[0].pingApp[0] 	"ping out-of-order rate (%)" 	0
scalar MCProjectNetwork.host[0].pingApp[0] 	numOutOfOrderArrivals:last 	nan
attr interpolationmode  none
attr title  "ping out-of-order arrivals, last"
scalar MCProjectNetwork.host[0].pingApp[0] 	pingRxSeq:count 	0
attr interpolationmode  none
attr title  "ping rx seq, count"
scalar MCProjectNetwork.host[0].pingApp[0] 	pingTxSeq:count 	1
attr interpolationmode  none
attr title  "ping tx seq, count"
scalar MCProjectNetwork.host[0].pingApp[0] 	numLost:last 	nan
attr interpolationmode  none
attr title  "pings lost, last"
statistic MCProjectNetwork.host[0].pingApp[0] 	rtt:histogram
field count 0
field mean nan
field stddev nan
field sum 0
field sqrsum 0
field min nan
field max nan
attr interpolationmode  none
attr title  "ping round-trip time, histogram"
attr unit  s
bin	-INF	0
bin	-0.5	0
bin	-0.46666666666667	0
bin	-0.43333333333333	0
bin	-0.4	0
bin	-0.36666666666667	0
bin	-0.33333333333333	0
bin	-0.3	0
bin	-0.26666666666667	0
bin	-0.23333333333333	0
bin	-0.2	0
bin	-0.16666666666667	0
bin	-0.13333333333333	0
bin	-0.1	0
bin	-0.066666666666667	0
bin	-0.033333333333333	0
bin	-6.9388939039072e-018	0
bin	0.033333333333333	0
bin	0.066666666666667	0
bin	0.1	0
bin	0.13333333333333	0
bin	0.16666666666667	0
bin	0.2	0
bin	0.23333333333333	0
bin	0.26666666666667	0
bin	0.3	0
bin	0.33333333333333	0
bin	0.36666666666667	0
bin	0.4	0
bin	0.43333333333333	0
bin	0.46666666666667	0
bin	0.5	0
scalar MCProjectNetwork.host[0].manetrouting 	"simulated time" 	4.003959131288
scalar MCProjectNetwork.host[0].manetrouting 	"Aodv totalSend " 	41
scalar MCProjectNetwork.host[0].manetrouting 	"rreq send" 	38
scalar MCProjectNetwork.host[0].manetrouting 	"rreq rec" 	143
scalar MCProjectNetwork.host[0].manetrouting 	"rrep send" 	2
scalar MCProjectNetwork.host[0].manetrouting 	"rrep rec" 	0
scalar MCProjectNetwork.host[0].manetrouting 	"rrep ack send" 	0
scalar MCProjectNetwork.host[0].manetrouting 	"rrep ack rec" 	0
scalar MCProjectNetwork.host[0].manetrouting 	"rerr send" 	0
scalar MCProjectNetwork.host[0].manetrouting 	"rerr rec" 	0
scalar MCProjectNetwork.host[0].manetrouting 	"total repair" 	0
scalar MCProjectNetwork.host[1].networkLayer.arp 	initiatedARPResolution:count 	2
attr title  "ARP initiated resolutions, count"
scalar MCProjectNetwork.host[1].networkLayer.arp 	sentReply:count 	0
attr title  "ARP replies sent, count"
scalar MCProjectNetwork.host[1].networkLayer.arp 	sentReq:count 	2
attr title  "ARP request sent, count"
scalar MCProjectNetwork.host[1].networkLayer.arp 	failedARPResolution:count 	0
attr title  "ARP failed resolutions, count"
scalar MCProjectNetwork.host[1].networkLayer.arp 	completedARPResolution:count 	0
attr title  "ARP completed resolutions, count"
scalar MCProjectNetwork.host[1].lo0.lo 	rcvdPkFromHL:count 	0
attr interpolationmode  none
attr source  packetReceivedFromUpper
attr title  "packets received from higher layer, count"
scalar MCProjectNetwork.host[1].lo0.lo 	rcvdPkFromHL:sum(packetBytes) 	0
attr interpolationmode  none
attr source  packetReceivedFromUpper
attr title  "packets received from higher layer, sum(packetBytes)"
scalar MCProjectNetwork.host[1].lo0.lo 	passedUpPk:count 	0
attr interpolationmode  none
attr source  packetSentToUpper
attr title  "packets passed to higher layer, count"
scalar MCProjectNetwork.host[1].lo0.lo 	passedUpPk:sum(packetBytes) 	0
attr interpolationmode  none
attr source  packetSentToUpper
attr title  "packets passed to higher layer, sum(packetBytes)"
scalar MCProjectNetwork.host[1].lo0.lo 	droppedPkBitError:count 	0
attr interpolationmode  none
attr source  dropPkBitError
attr title  "packets dropped/bit error, count"
scalar MCProjectNetwork.host[1].lo0.lo 	droppedPkBitError:sum(packetBytes) 	0
attr interpolationmode  none
attr source  dropPkBitError
attr title  "packets dropped/bit error, sum(packetBytes)"
scalar MCProjectNetwork.host[1].wlan[0].mgmt 	dropPkByQueue:count 	0
attr interpolationmode  none
attr source  dropPkByQueue
attr title  "packets dropped by queue, count"
scalar MCProjectNetwork.host[1].wlan[0].mgmt 	dropPkByQueue:sum(packetBytes) 	0
attr interpolationmode  none
attr source  dropPkByQueue
attr title  "packets dropped by queue, sum(packetBytes)"
scalar MCProjectNetwork.host[1].wlan[0].mgmt 	dataQueueLen:max 	0
attr interpolationmode  sample-hold
attr title  "data queue length, max"
scalar MCProjectNetwork.host[1].wlan[0].mgmt 	dataQueueLen:timeavg 	0
attr interpolationmode  sample-hold
attr title  "data queue length, timeavg"
scalar MCProjectNetwork.host[1].wlan[0].mac 	"number of received packets" 	0
scalar MCProjectNetwork.host[1].wlan[0].mac 	"number of collisions" 	2
scalar MCProjectNetwork.host[1].wlan[0].mac 	"number of internal collisions" 	0
scalar MCProjectNetwork.host[1].wlan[0].mac 	"number of retry for AC 0" 	0
scalar MCProjectNetwork.host[1].wlan[0].mac 	"sent and received bits" 	1840
scalar MCProjectNetwork.host[1].wlan[0].mac 	"sent packet within AC 0" 	0
scalar MCProjectNetwork.host[1].wlan[0].mac 	"sent in TXOP " 	0
scalar MCProjectNetwork.host[1].wlan[0].mac 	"sentWithoutRetry AC 0" 	0
scalar MCProjectNetwork.host[1].wlan[0].mac 	"numGivenUp AC 0" 	0
scalar MCProjectNetwork.host[1].wlan[0].mac 	"numDropped AC 0" 	0
scalar MCProjectNetwork.host[1].wlan[0].mac 	rcvdPkFromHL:count 	3
attr interpolationmode  none
attr source  packetReceivedFromUpper
attr title  "packets received from higher layer, count"
scalar MCProjectNetwork.host[1].wlan[0].mac 	rcvdPkFromHL:sum(packetBytes) 	230
attr interpolationmode  none
attr source  packetReceivedFromUpper
attr title  "packets received from higher layer, sum(packetBytes)"
scalar MCProjectNetwork.host[1].wlan[0].mac 	passedUpPk:count 	5
attr interpolationmode  none
attr source  packetSentToUpper
attr title  "packets passed to higher layer, count"
scalar MCProjectNetwork.host[1].wlan[0].mac 	passedUpPk:sum(packetBytes) 	470
attr interpolationmode  none
attr source  packetSentToUpper
attr title  "packets passed to higher layer, sum(packetBytes)"
scalar MCProjectNetwork.host[1].wlan[0].mac 	rcvdPkFromLL:count 	7
attr interpolationmode  none
attr source  packetReceivedFromLower
attr title  "packets received from lower layer, count"
scalar MCProjectNetwork.host[1].wlan[0].mac 	rcvdPkFromLL:sum(packetBytes) 	658
attr interpolationmode  none
attr source  packetReceivedFromLower
attr title  "packets received from lower layer, sum(packetBytes)"
scalar MCProjectNetwork.host[1].wlan[0].mac 	sentDownPk:count 	3
attr interpolationmode  none
attr source  packetSentToLower
attr title  "packets sent to lower layer, count"
scalar MCProjectNetwork.host[1].wlan[0].mac 	sentDownPk:sum(packetBytes) 	230
attr interpolationmode  none
attr source  packetSentToLower
attr title  "packets sent to lower layer, sum(packetBytes)"
scalar MCProjectNetwork.host[1].wlan[0].radio 	lossRate:min 	nan
attr interpolationmode  backward-sample-hold
attr title  "packet loss rate, min"
scalar MCProjectNetwork.host[1].wlan[0].radio 	lossRate:max 	nan
attr interpolationmode  backward-sample-hold
attr title  "packet loss rate, max"
scalar MCProjectNetwork.host[1].wlan[0].radio 	lossRate:timeavg 	nan
attr interpolationmode  backward-sample-hold
attr title  "packet loss rate, timeavg"
statistic MCProjectNetwork.host[1].wlan[0].radio 	channelNo:histogram
field count 1
field mean 0
field stddev nan
field sum 0
field sqrsum 0
field min 0
field max 0
attr interpolationmode  sample-hold
attr title  "channel no, histogram"
bin	-INF	0
bin	-0.5	0
bin	-0.46666666666667	0
bin	-0.43333333333333	0
bin	-0.4	0
bin	-0.36666666666667	0
bin	-0.33333333333333	0
bin	-0.3	0
bin	-0.26666666666667	0
bin	-0.23333333333333	0
bin	-0.2	0
bin	-0.16666666666667	0
bin	-0.13333333333333	0
bin	-0.1	0
bin	-0.066666666666667	0
bin	-0.033333333333333	0
bin	-6.9388939039072e-018	1
bin	0.033333333333333	0
bin	0.066666666666667	0
bin	0.1	0
bin	0.13333333333333	0
bin	0.16666666666667	0
bin	0.2	0
bin	0.23333333333333	0
bin	0.26666666666667	0
bin	0.3	0
bin	0.33333333333333	0
bin	0.36666666666667	0
bin	0.4	0
bin	0.43333333333333	0
bin	0.46666666666667	0
bin	0.5	0
scalar MCProjectNetwork.host[1].wlan[0].radio 	radioState:count 	26
attr interpolationmode  sample-hold
attr title  "radio state (enum), count"
scalar MCProjectNetwork.host[1].wlan[0].radio 	bitrate:min 	2000000
attr interpolationmode  sample-hold
attr title  "tx bitrate, min"
attr unit  bps
scalar MCProjectNetwork.host[1].wlan[0].radio 	bitrate:max 	2000000
attr interpolationmode  sample-hold
attr title  "tx bitrate, max"
attr unit  bps
scalar MCProjectNetwork.host[1].wlan[0].radio 	bitrate:timeavg 	2000000
attr interpolationmode  sample-hold
attr title  "tx bitrate, timeavg"
attr unit  bps
scalar MCProjectNetwork.host[2].networkLayer.arp 	initiatedARPResolution:count 	0
attr title  "ARP initiated resolutions, count"
scalar MCProjectNetwork.host[2].networkLayer.arp 	sentReply:count 	0
attr title  "ARP replies sent, count"
scalar MCProjectNetwork.host[2].networkLayer.arp 	sentReq:count 	0
attr title  "ARP request sent, count"
scalar MCProjectNetwork.host[2].networkLayer.arp 	failedARPResolution:count 	0
attr title  "ARP failed resolutions, count"
scalar MCProjectNetwork.host[2].networkLayer.arp 	completedARPResolution:count 	0
attr title  "ARP completed resolutions, count"
scalar MCProjectNetwork.host[2].lo0.lo 	rcvdPkFromHL:count 	0
attr interpolationmode  none
attr source  packetReceivedFromUpper
attr title  "packets received from higher layer, count"
scalar MCProjectNetwork.host[2].lo0.lo 	rcvdPkFromHL:sum(packetBytes) 	0
attr interpolationmode  none
attr source  packetReceivedFromUpper
attr title  "packets received from higher layer, sum(packetBytes)"
scalar MCProjectNetwork.host[2].lo0.lo 	passedUpPk:count 	0
attr interpolationmode  none
attr source  packetSentToUpper
attr title  "packets passed to higher layer, count"
scalar MCProjectNetwork.host[2].lo0.lo 	passedUpPk:sum(packetBytes) 	0
attr interpolationmode  none
attr source  packetSentToUpper
attr title  "packets passed to higher layer, sum(packetBytes)"
scalar MCProjectNetwork.host[2].lo0.lo 	droppedPkBitError:count 	0
attr interpolationmode  none
attr source  dropPkBitError
attr title  "packets dropped/bit error, count"
scalar MCProjectNetwork.host[2].lo0.lo 	droppedPkBitError:sum(packetBytes) 	0
attr interpolationmode  none
attr source  dropPkBitError
attr title  "packets dropped/bit error, sum(packetBytes)"
scalar MCProjectNetwork.host[2].wlan[0].mgmt 	dropPkByQueue:count 	0
attr interpolationmode  none
attr source  dropPkByQueue
attr title  "packets dropped by queue, count"
scalar MCProjectNetwork.host[2].wlan[0].mgmt 	dropPkByQueue:sum(packetBytes) 	0
attr interpolationmode  none
attr source  dropPkByQueue
attr title  "packets dropped by queue, sum(packetBytes)"
scalar MCProjectNetwork.host[2].wlan[0].mgmt 	dataQueueLen:max 	0
attr interpolationmode  sample-hold
attr title  "data queue length, max"
scalar MCProjectNetwork.host[2].wlan[0].mgmt 	dataQueueLen:timeavg 	0
attr interpolationmode  sample-hold
attr title  "data queue length, timeavg"
scalar MCProjectNetwork.host[2].wlan[0].mac 	"number of received packets" 	0
scalar MCProjectNetwork.host[2].wlan[0].mac 	"number of collisions" 	3
scalar MCProjectNetwork.host[2].wlan[0].mac 	"number of internal collisions" 	0
scalar MCProjectNetwork.host[2].wlan[0].mac 	"number of retry for AC 0" 	0
scalar MCProjectNetwork.host[2].wlan[0].mac 	"sent and received bits" 	752
scalar MCProjectNetwork.host[2].wlan[0].mac 	"sent packet within AC 0" 	0
scalar MCProjectNetwork.host[2].wlan[0].mac 	"sent in TXOP " 	0
scalar MCProjectNetwork.host[2].wlan[0].mac 	"sentWithoutRetry AC 0" 	0
scalar MCProjectNetwork.host[2].wlan[0].mac 	"numGivenUp AC 0" 	0
scalar MCProjectNetwork.host[2].wlan[0].mac 	"numDropped AC 0" 	0
scalar MCProjectNetwork.host[2].wlan[0].mac 	rcvdPkFromHL:count 	1
attr interpolationmode  none
attr source  packetReceivedFromUpper
attr title  "packets received from higher layer, count"
scalar MCProjectNetwork.host[2].wlan[0].mac 	rcvdPkFromHL:sum(packetBytes) 	94
attr interpolationmode  none
attr source  packetReceivedFromUpper
attr title  "packets received from higher layer, sum(packetBytes)"
scalar MCProjectNetwork.host[2].wlan[0].mac 	passedUpPk:count 	8
attr interpolationmode  none
attr source  packetSentToUpper
attr title  "packets passed to higher layer, count"
scalar MCProjectNetwork.host[2].wlan[0].mac 	passedUpPk:sum(packetBytes) 	752
attr interpolationmode  none
attr source  packetSentToUpper
attr title  "packets passed to higher layer, sum(packetBytes)"
scalar MCProjectNetwork.host[2].wlan[0].mac 	rcvdPkFromLL:count 	11
attr interpolationmode  none
attr source  packetReceivedFromLower
attr title  "packets received from lower layer, count"
scalar MCProjectNetwork.host[2].wlan[0].mac 	rcvdPkFromLL:sum(packetBytes) 	1034
attr interpolationmode  none
attr source  packetReceivedFromLower
attr title  "packets received from lower layer, sum(packetBytes)"
scalar MCProjectNetwork.host[2].wlan[0].mac 	sentDownPk:count 	1
attr interpolationmode  none
attr source  packetSentToLower
attr title  "packets sent to lower layer, count"
scalar MCProjectNetwork.host[2].wlan[0].mac 	sentDownPk:sum(packetBytes) 	94
attr interpolationmode  none
attr source  packetSentToLower
attr title  "packets sent to lower layer, sum(packetBytes)"
scalar MCProjectNetwork.host[2].wlan[0].radio 	lossRate:min 	nan
attr interpolationmode  backward-sample-hold
attr title  "packet loss rate, min"
scalar MCProjectNetwork.host[2].wlan[0].radio 	lossRate:max 	nan
attr interpolationmode  backward-sample-hold
attr title  "packet loss rate, max"
scalar MCProjectNetwork.host[2].wlan[0].radio 	lossRate:timeavg 	nan
attr interpolationmode  backward-sample-hold
attr title  "packet loss rate, timeavg"
statistic MCProjectNetwork.host[2].wlan[0].radio 	channelNo:histogram
field count 1
field mean 0
field stddev nan
field sum 0
field sqrsum 0
field min 0
field max 0
attr interpolationmode  sample-hold
attr title  "channel no, histogram"
bin	-INF	0
bin	-0.5	0
bin	-0.46666666666667	0
bin	-0.43333333333333	0
bin	-0.4	0
bin	-0.36666666666667	0
bin	-0.33333333333333	0
bin	-0.3	0
bin	-0.26666666666667	0
bin	-0.23333333333333	0
bin	-0.2	0
bin	-0.16666666666667	0
bin	-0.13333333333333	0
bin	-0.1	0
bin	-0.066666666666667	0
bin	-0.033333333333333	0
bin	-6.9388939039072e-018	1
bin	0.033333333333333	0
bin	0.066666666666667	0
bin	0.1	0
bin	0.13333333333333	0
bin	0.16666666666667	0
bin	0.2	0
bin	0.23333333333333	0
bin	0.26666666666667	0
bin	0.3	0
bin	0.33333333333333	0
bin	0.36666666666667	0
bin	0.4	0
bin	0.43333333333333	0
bin	0.46666666666667	0
bin	0.5	0
scalar MCProjectNetwork.host[2].wlan[0].radio 	radioState:count 	30
attr interpolationmode  sample-hold
attr title  "radio state (enum), count"
scalar MCProjectNetwork.host[2].wlan[0].radio 	bitrate:min 	2000000
attr interpolationmode  sample-hold
attr title  "tx bitrate, min"
attr unit  bps
scalar MCProjectNetwork.host[2].wlan[0].radio 	bitrate:max 	2000000
attr interpolationmode  sample-hold
attr title  "tx bitrate, max"
attr unit  bps
scalar MCProjectNetwork.host[2].wlan[0].radio 	bitrate:timeavg 	2000000
attr interpolationmode  sample-hold
attr title  "tx bitrate, timeavg"
attr unit  bps
scalar MCProjectNetwork.host[3].networkLayer.arp 	initiatedARPResolution:count 	0
attr title  "ARP initiated resolutions, count"
scalar MCProjectNetwork.host[3].networkLayer.arp 	sentReply:count 	0
attr title  "ARP replies sent, count"
scalar MCProjectNetwork.host[3].networkLayer.arp 	sentReq:count 	0
attr title  "ARP request sent, count"
scalar MCProjectNetwork.host[3].networkLayer.arp 	failedARPResolution:count 	0
attr title  "ARP failed resolutions, count"
scalar MCProjectNetwork.host[3].networkLayer.arp 	completedARPResolution:count 	0
attr title  "ARP completed resolutions, count"
scalar MCProjectNetwork.host[3].lo0.lo 	rcvdPkFromHL:count 	0
attr interpolationmode  none
attr source  packetReceivedFromUpper
attr title  "packets received from higher layer, count"
scalar MCProjectNetwork.host[3].lo0.lo 	rcvdPkFromHL:sum(packetBytes) 	0
attr interpolationmode  none
attr source  packetReceivedFromUpper
attr title  "packets received from higher layer, sum(packetBytes)"
scalar MCProjectNetwork.host[3].lo0.lo 	passedUpPk:count 	0
attr interpolationmode  none
attr source  packetSentToUpper
attr title  "packets passed to higher layer, count"
scalar MCProjectNetwork.host[3].lo0.lo 	passedUpPk:sum(packetBytes) 	0
attr interpolationmode  none
attr source  packetSentToUpper
attr title  "packets passed to higher layer, sum(packetBytes)"
scalar MCProjectNetwork.host[3].lo0.lo 	droppedPkBitError:count 	0
attr interpolationmode  none
attr source  dropPkBitError
attr title  "packets dropped/bit error, count"
scalar MCProjectNetwork.host[3].lo0.lo 	droppedPkBitError:sum(packetBytes) 	0
attr interpolationmode  none
attr source  dropPkBitError
attr title  "packets dropped/bit error, sum(packetBytes)"
scalar MCProjectNetwork.host[3].wlan[0].mgmt 	dropPkByQueue:count 	0
attr interpolationmode  none
attr source  dropPkByQueue
attr title  "packets dropped by queue, count"
scalar MCProjectNetwork.host[3].wlan[0].mgmt 	dropPkByQueue:sum(packetBytes) 	0
attr interpolationmode  none
attr source  dropPkByQueue
attr title  "packets dropped by queue, sum(packetBytes)"
scalar MCProjectNetwork.host[3].wlan[0].mgmt 	dataQueueLen:max 	0
attr interpolationmode  sample-hold
attr title  "data queue length, max"
scalar MCProjectNetwork.host[3].wlan[0].mgmt 	dataQueueLen:timeavg 	0
attr interpolationmode  sample-hold
attr title  "data queue length, timeavg"
scalar MCProjectNetwork.host[3].wlan[0].mac 	"number of received packets" 	0
scalar MCProjectNetwork.host[3].wlan[0].mac 	"number of collisions" 	5
scalar MCProjectNetwork.host[3].wlan[0].mac 	"number of internal collisions" 	0
scalar MCProjectNetwork.host[3].wlan[0].mac 	"number of retry for AC 0" 	0
scalar MCProjectNetwork.host[3].wlan[0].mac 	"sent and received bits" 	1504
scalar MCProjectNetwork.host[3].wlan[0].mac 	"sent packet within AC 0" 	0
scalar MCProjectNetwork.host[3].wlan[0].mac 	"sent in TXOP " 	0
scalar MCProjectNetwork.host[3].wlan[0].mac 	"sentWithoutRetry AC 0" 	0
scalar MCProjectNetwork.host[3].wlan[0].mac 	"numGivenUp AC 0" 	0
scalar MCProjectNetwork.host[3].wlan[0].mac 	"numDropped AC 0" 	0
scalar MCProjectNetwork.host[3].wlan[0].mac 	rcvdPkFromHL:count 	2
attr interpolationmode  none
attr source  packetReceivedFromUpper
attr title  "packets received from higher layer, count"
scalar MCProjectNetwork.host[3].wlan[0].mac 	rcvdPkFromHL:sum(packetBytes) 	188
attr interpolationmode  none
attr source  packetReceivedFromUpper
attr title  "packets received from higher layer, sum(packetBytes)"
scalar MCProjectNetwork.host[3].wlan[0].mac 	passedUpPk:count 	12
attr interpolationmode  none
attr source  packetSentToUpper
attr title  "packets passed to higher layer, count"
scalar MCProjectNetwork.host[3].wlan[0].mac 	passedUpPk:sum(packetBytes) 	1128
attr interpolationmode  none
attr source  packetSentToUpper
attr title  "packets passed to higher layer, sum(packetBytes)"
scalar MCProjectNetwork.host[3].wlan[0].mac 	rcvdPkFromLL:count 	17
attr interpolationmode  none
attr source  packetReceivedFromLower
attr title  "packets received from lower layer, count"
scalar MCProjectNetwork.host[3].wlan[0].mac 	rcvdPkFromLL:sum(packetBytes) 	1598
attr interpolationmode  none
attr source  packetReceivedFromLower
attr title  "packets received from lower layer, sum(packetBytes)"
scalar MCProjectNetwork.host[3].wlan[0].mac 	sentDownPk:count 	2
attr interpolationmode  none
attr source  packetSentToLower
attr title  "packets sent to lower layer, count"
scalar MCProjectNetwork.host[3].wlan[0].mac 	sentDownPk:sum(packetBytes) 	188
attr interpolationmode  none
attr source  packetSentToLower
attr title  "packets sent to lower layer, sum(packetBytes)"
scalar MCProjectNetwork.host[3].wlan[0].radio 	lossRate:min 	nan
attr interpolationmode  backward-sample-hold
attr title  "packet loss rate, min"
scalar MCProjectNetwork.host[3].wlan[0].radio 	lossRate:max 	nan
attr interpolationmode  backward-sample-hold
attr title  "packet loss rate, max"
scalar MCProjectNetwork.host[3].wlan[0].radio 	lossRate:timeavg 	nan
attr interpolationmode  backward-sample-hold
attr title  "packet loss rate, timeavg"
statistic MCProjectNetwork.host[3].wlan[0].radio 	channelNo:histogram
field count 1
field mean 0
field stddev nan
field sum 0
field sqrsum 0
field min 0
field max 0
attr interpolationmode  sample-hold
attr title  "channel no, histogram"
bin	-INF	0
bin	-0.5	0
bin	-0.46666666666667	0
bin	-0.43333333333333	0
bin	-0.4	0
bin	-0.36666666666667	0
bin	-0.33333333333333	0
bin	-0.3	0
bin	-0.26666666666667	0
bin	-0.23333333333333	0
bin	-0.2	0
bin	-0.16666666666667	0
bin	-0.13333333333333	0
bin	-0.1	0
bin	-0.066666666666667	0
bin	-0.033333333333333	0
bin	-6.9388939039072e-018	1
bin	0.033333333333333	0
bin	0.066666666666667	0
bin	0.1	0
bin	0.13333333333333	0
bin	0.16666666666667	0
bin	0.2	0
bin	0.23333333333333	0
bin	0.26666666666667	0
bin	0.3	0
bin	0.33333333333333	0
bin	0.36666666666667	0
bin	0.4	0
bin	0.43333333333333	0
bin	0.46666666666667	0
bin	0.5	0
scalar MCProjectNetwork.host[3].wlan[0].radio 	radioState:count 	40
attr interpolationmode  sample-hold
attr title  "radio state (enum), count"
scalar MCProjectNetwork.host[3].wlan[0].radio 	bitrate:min 	2000000
attr interpolationmode  sample-hold
attr title  "tx bitrate, min"
attr unit  bps
scalar MCProjectNetwork.host[3].wlan[0].radio 	bitrate:max 	2000000
attr interpolationmode  sample-hold
attr title  "tx bitrate, max"
attr unit  bps
scalar MCProjectNetwork.host[3].wlan[0].radio 	bitrate:timeavg 	2000000
attr interpolationmode  sample-hold
attr title  "tx bitrate, timeavg"
attr unit  bps
scalar MCProjectNetwork.host[4].networkLayer.arp 	initiatedARPResolution:count 	0
attr title  "ARP initiated resolutions, count"
scalar MCProjectNetwork.host[4].networkLayer.arp 	sentReply:count 	0
attr title  "ARP replies sent, count"
scalar MCProjectNetwork.host[4].networkLayer.arp 	sentReq:count 	0
attr title  "ARP request sent, count"
scalar MCProjectNetwork.host[4].networkLayer.arp 	failedARPResolution:count 	0
attr title  "ARP failed resolutions, count"
scalar MCProjectNetwork.host[4].networkLayer.arp 	completedARPResolution:count 	0
attr title  "ARP completed resolutions, count"
scalar MCProjectNetwork.host[4].lo0.lo 	rcvdPkFromHL:count 	0
attr interpolationmode  none
attr source  packetReceivedFromUpper
attr title  "packets received from higher layer, count"
scalar MCProjectNetwork.host[4].lo0.lo 	rcvdPkFromHL:sum(packetBytes) 	0
attr interpolationmode  none
attr source  packetReceivedFromUpper
attr title  "packets received from higher layer, sum(packetBytes)"
scalar MCProjectNetwork.host[4].lo0.lo 	passedUpPk:count 	0
attr interpolationmode  none
attr source  packetSentToUpper
attr title  "packets passed to higher layer, count"
scalar MCProjectNetwork.host[4].lo0.lo 	passedUpPk:sum(packetBytes) 	0
attr interpolationmode  none
attr source  packetSentToUpper
attr title  "packets passed to higher layer, sum(packetBytes)"
scalar MCProjectNetwork.host[4].lo0.lo 	droppedPkBitError:count 	0
attr interpolationmode  none
attr source  dropPkBitError
attr title  "packets dropped/bit error, count"
scalar MCProjectNetwork.host[4].lo0.lo 	droppedPkBitError:sum(packetBytes) 	0
attr interpolationmode  none
attr source  dropPkBitError
attr title  "packets dropped/bit error, sum(packetBytes)"
scalar MCProjectNetwork.host[4].wlan[0].mgmt 	dropPkByQueue:count 	0
attr interpolationmode  none
attr source  dropPkByQueue
attr title  "packets dropped by queue, count"
scalar MCProjectNetwork.host[4].wlan[0].mgmt 	dropPkByQueue:sum(packetBytes) 	0
attr interpolationmode  none
attr source  dropPkByQueue
attr title  "packets dropped by queue, sum(packetBytes)"
scalar MCProjectNetwork.host[4].wlan[0].mgmt 	dataQueueLen:max 	0
attr interpolationmode  sample-hold
attr title  "data queue length, max"
scalar MCProjectNetwork.host[4].wlan[0].mgmt 	dataQueueLen:timeavg 	0
attr interpolationmode  sample-hold
attr title  "data queue length, timeavg"
scalar MCProjectNetwork.host[4].wlan[0].mac 	"number of received packets" 	0
scalar MCProjectNetwork.host[4].wlan[0].mac 	"number of collisions" 	1
scalar MCProjectNetwork.host[4].wlan[0].mac 	"number of internal collisions" 	0
scalar MCProjectNetwork.host[4].wlan[0].mac 	"number of retry for AC 0" 	0
scalar MCProjectNetwork.host[4].wlan[0].mac 	"sent and received bits" 	752
scalar MCProjectNetwork.host[4].wlan[0].mac 	"sent packet within AC 0" 	0
scalar MCProjectNetwork.host[4].wlan[0].mac 	"sent in TXOP " 	0
scalar MCProjectNetwork.host[4].wlan[0].mac 	"sentWithoutRetry AC 0" 	0
scalar MCProjectNetwork.host[4].wlan[0].mac 	"numGivenUp AC 0" 	0
scalar MCProjectNetwork.host[4].wlan[0].mac 	"numDropped AC 0" 	0
scalar MCProjectNetwork.host[4].wlan[0].mac 	rcvdPkFromHL:count 	1
attr interpolationmode  none
attr source  packetReceivedFromUpper
attr title  "packets received from higher layer, count"
scalar MCProjectNetwork.host[4].wlan[0].mac 	rcvdPkFromHL:sum(packetBytes) 	94
attr interpolationmode  none
attr source  packetReceivedFromUpper
attr title  "packets received from higher layer, sum(packetBytes)"
scalar MCProjectNetwork.host[4].wlan[0].mac 	passedUpPk:count 	9
attr interpolationmode  none
attr source  packetSentToUpper
attr title  "packets passed to higher layer, count"
scalar MCProjectNetwork.host[4].wlan[0].mac 	passedUpPk:sum(packetBytes) 	794
attr interpolationmode  none
attr source  packetSentToUpper
attr title  "packets passed to higher layer, sum(packetBytes)"
scalar MCProjectNetwork.host[4].wlan[0].mac 	rcvdPkFromLL:count 	10
attr interpolationmode  none
attr source  packetReceivedFromLower
attr title  "packets received from lower layer, count"
scalar MCProjectNetwork.host[4].wlan[0].mac 	rcvdPkFromLL:sum(packetBytes) 	888
attr interpolationmode  none
attr source  packetReceivedFromLower
attr title  "packets received from lower layer, sum(packetBytes)"
scalar MCProjectNetwork.host[4].wlan[0].mac 	sentDownPk:count 	1
attr interpolationmode  none
attr source  packetSentToLower
attr title  "packets sent to lower layer, count"
scalar MCProjectNetwork.host[4].wlan[0].mac 	sentDownPk:sum(packetBytes) 	94
attr interpolationmode  none
attr source  packetSentToLower
attr title  "packets sent to lower layer, sum(packetBytes)"
scalar MCProjectNetwork.host[4].wlan[0].radio 	lossRate:min 	nan
attr interpolationmode  backward-sample-hold
attr title  "packet loss rate, min"
scalar MCProjectNetwork.host[4].wlan[0].radio 	lossRate:max 	nan
attr interpolationmode  backward-sample-hold
attr title  "packet loss rate, max"
scalar MCProjectNetwork.host[4].wlan[0].radio 	lossRate:timeavg 	nan
attr interpolationmode  backward-sample-hold
attr title  "packet loss rate, timeavg"
statistic MCProjectNetwork.host[4].wlan[0].radio 	channelNo:histogram
field count 1
field mean 0
field stddev nan
field sum 0
field sqrsum 0
field min 0
field max 0
attr interpolationmode  sample-hold
attr title  "channel no, histogram"
bin	-INF	0
bin	-0.5	0
bin	-0.46666666666667	0
bin	-0.43333333333333	0
bin	-0.4	0
bin	-0.36666666666667	0
bin	-0.33333333333333	0
bin	-0.3	0
bin	-0.26666666666667	0
bin	-0.23333333333333	0
bin	-0.2	0
bin	-0.16666666666667	0
bin	-0.13333333333333	0
bin	-0.1	0
bin	-0.066666666666667	0
bin	-0.033333333333333	0
bin	-6.9388939039072e-018	1
bin	0.033333333333333	0
bin	0.066666666666667	0
bin	0.1	0
bin	0.13333333333333	0
bin	0.16666666666667	0
bin	0.2	0
bin	0.23333333333333	0
bin	0.26666666666667	0
bin	0.3	0
bin	0.33333333333333	0
bin	0.36666666666667	0
bin	0.4	0
bin	0.43333333333333	0
bin	0.46666666666667	0
bin	0.5	0
scalar MCProjectNetwork.host[4].wlan[0].radio 	radioState:count 	24
attr interpolationmode  sample-hold
attr title  "radio state (enum), count"
scalar MCProjectNetwork.host[4].wlan[0].radio 	bitrate:min 	2000000
attr interpolationmode  sample-hold
attr title  "tx bitrate, min"
attr unit  bps
scalar MCProjectNetwork.host[4].wlan[0].radio 	bitrate:max 	2000000
attr interpolationmode  sample-hold
attr title  "tx bitrate, max"
attr unit  bps
scalar MCProjectNetwork.host[4].wlan[0].radio 	bitrate:timeavg 	2000000
attr interpolationmode  sample-hold
attr title  "tx bitrate, timeavg"
attr unit  bps
scalar MCProjectNetwork.host[5].networkLayer.arp 	initiatedARPResolution:count 	0
attr title  "ARP initiated resolutions, count"
scalar MCProjectNetwork.host[5].networkLayer.arp 	sentReply:count 	0
attr title  "ARP replies sent, count"
scalar MCProjectNetwork.host[5].networkLayer.arp 	sentReq:count 	0
attr title  "ARP request sent, count"
scalar MCProjectNetwork.host[5].networkLayer.arp 	failedARPResolution:count 	0
attr title  "ARP failed resolutions, count"
scalar MCProjectNetwork.host[5].networkLayer.arp 	completedARPResolution:count 	0
attr title  "ARP completed resolutions, count"
scalar MCProjectNetwork.host[5].lo0.lo 	rcvdPkFromHL:count 	0
attr interpolationmode  none
attr source  packetReceivedFromUpper
attr title  "packets received from higher layer, count"
scalar MCProjectNetwork.host[5].lo0.lo 	rcvdPkFromHL:sum(packetBytes) 	0
attr interpolationmode  none
attr source  packetReceivedFromUpper
attr title  "packets received from higher layer, sum(packetBytes)"
scalar MCProjectNetwork.host[5].lo0.lo 	passedUpPk:count 	0
attr interpolationmode  none
attr source  packetSentToUpper
attr title  "packets passed to higher layer, count"
scalar MCProjectNetwork.host[5].lo0.lo 	passedUpPk:sum(packetBytes) 	0
attr interpolationmode  none
attr source  packetSentToUpper
attr title  "packets passed to higher layer, sum(packetBytes)"
scalar MCProjectNetwork.host[5].lo0.lo 	droppedPkBitError:count 	0
attr interpolationmode  none
attr source  dropPkBitError
attr title  "packets dropped/bit error, count"
scalar MCProjectNetwork.host[5].lo0.lo 	droppedPkBitError:sum(packetBytes) 	0
attr interpolationmode  none
attr source  dropPkBitError
attr title  "packets dropped/bit error, sum(packetBytes)"
scalar MCProjectNetwork.host[5].wlan[0].mgmt 	dropPkByQueue:count 	0
attr interpolationmode  none
attr source  dropPkByQueue
attr title  "packets dropped by queue, count"
scalar MCProjectNetwork.host[5].wlan[0].mgmt 	dropPkByQueue:sum(packetBytes) 	0
attr interpolationmode  none
attr source  dropPkByQueue
attr title  "packets dropped by queue, sum(packetBytes)"
scalar MCProjectNetwork.host[5].wlan[0].mgmt 	dataQueueLen:max 	0
attr interpolationmode  sample-hold
attr title  "data queue length, max"
scalar MCProjectNetwork.host[5].wlan[0].mgmt 	dataQueueLen:timeavg 	0
attr interpolationmode  sample-hold
attr title  "data queue length, timeavg"
scalar MCProjectNetwork.host[5].wlan[0].mac 	"number of received packets" 	0
scalar MCProjectNetwork.host[5].wlan[0].mac 	"number of collisions" 	0
scalar MCProjectNetwork.host[5].wlan[0].mac 	"number of internal collisions" 	0
scalar MCProjectNetwork.host[5].wlan[0].mac 	"number of retry for AC 0" 	0
scalar MCProjectNetwork.host[5].wlan[0].mac 	"sent and received bits" 	752
scalar MCProjectNetwork.host[5].wlan[0].mac 	"sent packet within AC 0" 	0
scalar MCProjectNetwork.host[5].wlan[0].mac 	"sent in TXOP " 	0
scalar MCProjectNetwork.host[5].wlan[0].mac 	"sentWithoutRetry AC 0" 	0
scalar MCProjectNetwork.host[5].wlan[0].mac 	"numGivenUp AC 0" 	0
scalar MCProjectNetwork.host[5].wlan[0].mac 	"numDropped AC 0" 	0
scalar MCProjectNetwork.host[5].wlan[0].mac 	rcvdPkFromHL:count 	1
attr interpolationmode  none
attr source  packetReceivedFromUpper
attr title  "packets received from higher layer, count"
scalar MCProjectNetwork.host[5].wlan[0].mac 	rcvdPkFromHL:sum(packetBytes) 	94
attr interpolationmode  none
attr source  packetReceivedFromUpper
attr title  "packets received from higher layer, sum(packetBytes)"
scalar MCProjectNetwork.host[5].wlan[0].mac 	passedUpPk:count 	6
attr interpolationmode  none
attr source  packetSentToUpper
attr title  "packets passed to higher layer, count"
scalar MCProjectNetwork.host[5].wlan[0].mac 	passedUpPk:sum(packetBytes) 	564
attr interpolationmode  none
attr source  packetSentToUpper
attr title  "packets passed to higher layer, sum(packetBytes)"
scalar MCProjectNetwork.host[5].wlan[0].mac 	rcvdPkFromLL:count 	6
attr interpolationmode  none
attr source  packetReceivedFromLower
attr title  "packets received from lower layer, count"
scalar MCProjectNetwork.host[5].wlan[0].mac 	rcvdPkFromLL:sum(packetBytes) 	564
attr interpolationmode  none
attr source  packetReceivedFromLower
attr title  "packets received from lower layer, sum(packetBytes)"
scalar MCProjectNetwork.host[5].wlan[0].mac 	sentDownPk:count 	1
attr interpolationmode  none
attr source  packetSentToLower
attr title  "packets sent to lower layer, count"
scalar MCProjectNetwork.host[5].wlan[0].mac 	sentDownPk:sum(packetBytes) 	94
attr interpolationmode  none
attr source  packetSentToLower
attr title  "packets sent to lower layer, sum(packetBytes)"
scalar MCProjectNetwork.host[5].wlan[0].radio 	lossRate:min 	nan
attr interpolationmode  backward-sample-hold
attr title  "packet loss rate, min"
scalar MCProjectNetwork.host[5].wlan[0].radio 	lossRate:max 	nan
attr interpolationmode  backward-sample-hold
attr title  "packet loss rate, max"
scalar MCProjectNetwork.host[5].wlan[0].radio 	lossRate:timeavg 	nan
attr interpolationmode  backward-sample-hold
attr title  "packet loss rate, timeavg"
statistic MCProjectNetwork.host[5].wlan[0].radio 	channelNo:histogram
field count 1
field mean 0
field stddev nan
field sum 0
field sqrsum 0
field min 0
field max 0
attr interpolationmode  sample-hold
attr title  "channel no, histogram"
bin	-INF	0
bin	-0.5	0
bin	-0.46666666666667	0
bin	-0.43333333333333	0
bin	-0.4	0
bin	-0.36666666666667	0
bin	-0.33333333333333	0
bin	-0.3	0
bin	-0.26666666666667	0
bin	-0.23333333333333	0
bin	-0.2	0
bin	-0.16666666666667	0
bin	-0.13333333333333	0
bin	-0.1	0
bin	-0.066666666666667	0
bin	-0.033333333333333	0
bin	-6.9388939039072e-018	1
bin	0.033333333333333	0
bin	0.066666666666667	0
bin	0.1	0
bin	0.13333333333333	0
bin	0.16666666666667	0
bin	0.2	0
bin	0.23333333333333	0
bin	0.26666666666667	0
bin	0.3	0
bin	0.33333333333333	0
bin	0.36666666666667	0
bin	0.4	0
bin	0.43333333333333	0
bin	0.46666666666667	0
bin	0.5	0
scalar MCProjectNetwork.host[5].wlan[0].radio 	radioState:count 	27
attr interpolationmode  sample-hold
attr title  "radio state (enum), count"
scalar MCProjectNetwork.host[5].wlan[0].radio 	bitrate:min 	2000000
attr interpolationmode  sample-hold
attr title  "tx bitrate, min"
attr unit  bps
scalar MCProjectNetwork.host[5].wlan[0].radio 	bitrate:max 	2000000
attr interpolationmode  sample-hold
attr title  "tx bitrate, max"
attr unit  bps
scalar MCProjectNetwork.host[5].wlan[0].radio 	bitrate:timeavg 	2000000
attr interpolationmode  sample-hold
attr title  "tx bitrate, timeavg"
attr unit  bps
scalar MCProjectNetwork.host[6].networkLayer.arp 	initiatedARPResolution:count 	0
attr title  "ARP initiated resolutions, count"
scalar MCProjectNetwork.host[6].networkLayer.arp 	sentReply:count 	0
attr title  "ARP replies sent, count"
scalar MCProjectNetwork.host[6].networkLayer.arp 	sentReq:count 	0
attr title  "ARP request sent, count"
scalar MCProjectNetwork.host[6].networkLayer.arp 	failedARPResolution:count 	0
attr title  "ARP failed resolutions, count"
scalar MCProjectNetwork.host[6].networkLayer.arp 	completedARPResolution:count 	0
attr title  "ARP completed resolutions, count"
scalar MCProjectNetwork.host[6].lo0.lo 	rcvdPkFromHL:count 	0
attr interpolationmode  none
attr source  packetReceivedFromUpper
attr title  "packets received from higher layer, count"
scalar MCProjectNetwork.host[6].lo0.lo 	rcvdPkFromHL:sum(packetBytes) 	0
attr interpolationmode  none
attr source  packetReceivedFromUpper
attr title  "packets received from higher layer, sum(packetBytes)"
scalar MCProjectNetwork.host[6].lo0.lo 	passedUpPk:count 	0
attr interpolationmode  none
attr source  packetSentToUpper
attr title  "packets passed to higher layer, count"
scalar MCProjectNetwork.host[6].lo0.lo 	passedUpPk:sum(packetBytes) 	0
attr interpolationmode  none
attr source  packetSentToUpper
attr title  "packets passed to higher layer, sum(packetBytes)"
scalar MCProjectNetwork.host[6].lo0.lo 	droppedPkBitError:count 	0
attr interpolationmode  none
attr source  dropPkBitError
attr title  "packets dropped/bit error, count"
scalar MCProjectNetwork.host[6].lo0.lo 	droppedPkBitError:sum(packetBytes) 	0
attr interpolationmode  none
attr source  dropPkBitError
attr title  "packets dropped/bit error, sum(packetBytes)"
scalar MCProjectNetwork.host[6].wlan[0].mgmt 	dropPkByQueue:count 	0
attr interpolationmode  none
attr source  dropPkByQueue
attr title  "packets dropped by queue, count"
scalar MCProjectNetwork.host[6].wlan[0].mgmt 	dropPkByQueue:sum(packetBytes) 	0
attr interpolationmode  none
attr source  dropPkByQueue
attr title  "packets dropped by queue, sum(packetBytes)"
scalar MCProjectNetwork.host[6].wlan[0].mgmt 	dataQueueLen:max 	0
attr interpolationmode  sample-hold
attr title  "data queue length, max"
scalar MCProjectNetwork.host[6].wlan[0].mgmt 	dataQueueLen:timeavg 	0
attr interpolationmode  sample-hold
attr title  "data queue length, timeavg"
scalar MCProjectNetwork.host[6].wlan[0].mac 	"number of received packets" 	0
scalar MCProjectNetwork.host[6].wlan[0].mac 	"number of collisions" 	3
scalar MCProjectNetwork.host[6].wlan[0].mac 	"number of internal collisions" 	0
scalar MCProjectNetwork.host[6].wlan[0].mac 	"number of retry for AC 0" 	0
scalar MCProjectNetwork.host[6].wlan[0].mac 	"sent and received bits" 	752
scalar MCProjectNetwork.host[6].wlan[0].mac 	"sent packet within AC 0" 	0
scalar MCProjectNetwork.host[6].wlan[0].mac 	"sent in TXOP " 	0
scalar MCProjectNetwork.host[6].wlan[0].mac 	"sentWithoutRetry AC 0" 	0
scalar MCProjectNetwork.host[6].wlan[0].mac 	"numGivenUp AC 0" 	0
scalar MCProjectNetwork.host[6].wlan[0].mac 	"numDropped AC 0" 	0
scalar MCProjectNetwork.host[6].wlan[0].mac 	rcvdPkFromHL:count 	1
attr interpolationmode  none
attr source  packetReceivedFromUpper
attr title  "packets received from higher layer, count"
scalar MCProjectNetwork.host[6].wlan[0].mac 	rcvdPkFromHL:sum(packetBytes) 	94
attr interpolationmode  none
attr source  packetReceivedFromUpper
attr title  "packets received from higher layer, sum(packetBytes)"
scalar MCProjectNetwork.host[6].wlan[0].mac 	passedUpPk:count 	7
attr interpolationmode  none
attr source  packetSentToUpper
attr title  "packets passed to higher layer, count"
scalar MCProjectNetwork.host[6].wlan[0].mac 	passedUpPk:sum(packetBytes) 	654
attr interpolationmode  none
attr source  packetSentToUpper
attr title  "packets passed to higher layer, sum(packetBytes)"
scalar MCProjectNetwork.host[6].wlan[0].mac 	rcvdPkFromLL:count 	10
attr interpolationmode  none
attr source  packetReceivedFromLower
attr title  "packets received from lower layer, count"
scalar MCProjectNetwork.host[6].wlan[0].mac 	rcvdPkFromLL:sum(packetBytes) 	888
attr interpolationmode  none
attr source  packetReceivedFromLower
attr title  "packets received from lower layer, sum(packetBytes)"
scalar MCProjectNetwork.host[6].wlan[0].mac 	sentDownPk:count 	1
attr interpolationmode  none
attr source  packetSentToLower
attr title  "packets sent to lower layer, count"
scalar MCProjectNetwork.host[6].wlan[0].mac 	sentDownPk:sum(packetBytes) 	94
attr interpolationmode  none
attr source  packetSentToLower
attr title  "packets sent to lower layer, sum(packetBytes)"
scalar MCProjectNetwork.host[6].wlan[0].radio 	lossRate:min 	nan
attr interpolationmode  backward-sample-hold
attr title  "packet loss rate, min"
scalar MCProjectNetwork.host[6].wlan[0].radio 	lossRate:max 	nan
attr interpolationmode  backward-sample-hold
attr title  "packet loss rate, max"
scalar MCProjectNetwork.host[6].wlan[0].radio 	lossRate:timeavg 	nan
attr interpolationmode  backward-sample-hold
attr title  "packet loss rate, timeavg"
statistic MCProjectNetwork.host[6].wlan[0].radio 	channelNo:histogram
field count 1
field mean 0
field stddev nan
field sum 0
field sqrsum 0
field min 0
field max 0
attr interpolationmode  sample-hold
attr title  "channel no, histogram"
bin	-INF	0
bin	-0.5	0
bin	-0.46666666666667	0
bin	-0.43333333333333	0
bin	-0.4	0
bin	-0.36666666666667	0
bin	-0.33333333333333	0
bin	-0.3	0
bin	-0.26666666666667	0
bin	-0.23333333333333	0
bin	-0.2	0
bin	-0.16666666666667	0
bin	-0.13333333333333	0
bin	-0.1	0
bin	-0.066666666666667	0
bin	-0.033333333333333	0
bin	-6.9388939039072e-018	1
bin	0.033333333333333	0
bin	0.066666666666667	0
bin	0.1	0
bin	0.13333333333333	0
bin	0.16666666666667	0
bin	0.2	0
bin	0.23333333333333	0
bin	0.26666666666667	0
bin	0.3	0
bin	0.33333333333333	0
bin	0.36666666666667	0
bin	0.4	0
bin	0.43333333333333	0
bin	0.46666666666667	0
bin	0.5	0
scalar MCProjectNetwork.host[6].wlan[0].radio 	radioState:count 	24
attr interpolationmode  sample-hold
attr title  "radio state (enum), count"
scalar MCProjectNetwork.host[6].wlan[0].radio 	bitrate:min 	2000000
attr interpolationmode  sample-hold
attr title  "tx bitrate, min"
attr unit  bps
scalar MCProjectNetwork.host[6].wlan[0].radio 	bitrate:max 	2000000
attr interpolationmode  sample-hold
attr title  "tx bitrate, max"
attr unit  bps
scalar MCProjectNetwork.host[6].wlan[0].radio 	bitrate:timeavg 	2000000
attr interpolationmode  sample-hold
attr title  "tx bitrate, timeavg"
attr unit  bps
scalar MCProjectNetwork.host[7].networkLayer.arp 	initiatedARPResolution:count 	0
attr title  "ARP initiated resolutions, count"
scalar MCProjectNetwork.host[7].networkLayer.arp 	sentReply:count 	0
attr title  "ARP replies sent, count"
scalar MCProjectNetwork.host[7].networkLayer.arp 	sentReq:count 	0
attr title  "ARP request sent, count"
scalar MCProjectNetwork.host[7].networkLayer.arp 	failedARPResolution:count 	0
attr title  "ARP failed resolutions, count"
scalar MCProjectNetwork.host[7].networkLayer.arp 	completedARPResolution:count 	0
attr title  "ARP completed resolutions, count"
scalar MCProjectNetwork.host[7].lo0.lo 	rcvdPkFromHL:count 	0
attr interpolationmode  none
attr source  packetReceivedFromUpper
attr title  "packets received from higher layer, count"
scalar MCProjectNetwork.host[7].lo0.lo 	rcvdPkFromHL:sum(packetBytes) 	0
attr interpolationmode  none
attr source  packetReceivedFromUpper
attr title  "packets received from higher layer, sum(packetBytes)"
scalar MCProjectNetwork.host[7].lo0.lo 	passedUpPk:count 	0
attr interpolationmode  none
attr source  packetSentToUpper
attr title  "packets passed to higher layer, count"
scalar MCProjectNetwork.host[7].lo0.lo 	passedUpPk:sum(packetBytes) 	0
attr interpolationmode  none
attr source  packetSentToUpper
attr title  "packets passed to higher layer, sum(packetBytes)"
scalar MCProjectNetwork.host[7].lo0.lo 	droppedPkBitError:count 	0
attr interpolationmode  none
attr source  dropPkBitError
attr title  "packets dropped/bit error, count"
scalar MCProjectNetwork.host[7].lo0.lo 	droppedPkBitError:sum(packetBytes) 	0
attr interpolationmode  none
attr source  dropPkBitError
attr title  "packets dropped/bit error, sum(packetBytes)"
scalar MCProjectNetwork.host[7].wlan[0].mgmt 	dropPkByQueue:count 	0
attr interpolationmode  none
attr source  dropPkByQueue
attr title  "packets dropped by queue, count"
scalar MCProjectNetwork.host[7].wlan[0].mgmt 	dropPkByQueue:sum(packetBytes) 	0
attr interpolationmode  none
attr source  dropPkByQueue
attr title  "packets dropped by queue, sum(packetBytes)"
scalar MCProjectNetwork.host[7].wlan[0].mgmt 	dataQueueLen:max 	0
attr interpolationmode  sample-hold
attr title  "data queue length, max"
scalar MCProjectNetwork.host[7].wlan[0].mgmt 	dataQueueLen:timeavg 	0
attr interpolationmode  sample-hold
attr title  "data queue length, timeavg"
scalar MCProjectNetwork.host[7].wlan[0].mac 	"number of received packets" 	0
scalar MCProjectNetwork.host[7].wlan[0].mac 	"number of collisions" 	1
scalar MCProjectNetwork.host[7].wlan[0].mac 	"number of internal collisions" 	0
scalar MCProjectNetwork.host[7].wlan[0].mac 	"number of retry for AC 0" 	0
scalar MCProjectNetwork.host[7].wlan[0].mac 	"sent and received bits" 	752
scalar MCProjectNetwork.host[7].wlan[0].mac 	"sent packet within AC 0" 	0
scalar MCProjectNetwork.host[7].wlan[0].mac 	"sent in TXOP " 	0
scalar MCProjectNetwork.host[7].wlan[0].mac 	"sentWithoutRetry AC 0" 	0
scalar MCProjectNetwork.host[7].wlan[0].mac 	"numGivenUp AC 0" 	0
scalar MCProjectNetwork.host[7].wlan[0].mac 	"numDropped AC 0" 	0
scalar MCProjectNetwork.host[7].wlan[0].mac 	rcvdPkFromHL:count 	1
attr interpolationmode  none
attr source  packetReceivedFromUpper
attr title  "packets received from higher layer, count"
scalar MCProjectNetwork.host[7].wlan[0].mac 	rcvdPkFromHL:sum(packetBytes) 	94
attr interpolationmode  none
attr source  packetReceivedFromUpper
attr title  "packets received from higher layer, sum(packetBytes)"
scalar MCProjectNetwork.host[7].wlan[0].mac 	passedUpPk:count 	11
attr interpolationmode  none
attr source  packetSentToUpper
attr title  "packets passed to higher layer, count"
scalar MCProjectNetwork.host[7].wlan[0].mac 	passedUpPk:sum(packetBytes) 	982
attr interpolationmode  none
attr source  packetSentToUpper
attr title  "packets passed to higher layer, sum(packetBytes)"
scalar MCProjectNetwork.host[7].wlan[0].mac 	rcvdPkFromLL:count 	12
attr interpolationmode  none
attr source  packetReceivedFromLower
attr title  "packets received from lower layer, count"
scalar MCProjectNetwork.host[7].wlan[0].mac 	rcvdPkFromLL:sum(packetBytes) 	1076
attr interpolationmode  none
attr source  packetReceivedFromLower
attr title  "packets received from lower layer, sum(packetBytes)"
scalar MCProjectNetwork.host[7].wlan[0].mac 	sentDownPk:count 	1
attr interpolationmode  none
attr source  packetSentToLower
attr title  "packets sent to lower layer, count"
scalar MCProjectNetwork.host[7].wlan[0].mac 	sentDownPk:sum(packetBytes) 	94
attr interpolationmode  none
attr source  packetSentToLower
attr title  "packets sent to lower layer, sum(packetBytes)"
scalar MCProjectNetwork.host[7].wlan[0].radio 	lossRate:min 	nan
attr interpolationmode  backward-sample-hold
attr title  "packet loss rate, min"
scalar MCProjectNetwork.host[7].wlan[0].radio 	lossRate:max 	nan
attr interpolationmode  backward-sample-hold
attr title  "packet loss rate, max"
scalar MCProjectNetwork.host[7].wlan[0].radio 	lossRate:timeavg 	nan
attr interpolationmode  backward-sample-hold
attr title  "packet loss rate, timeavg"
statistic MCProjectNetwork.host[7].wlan[0].radio 	channelNo:histogram
field count 1
field mean 0
field stddev nan
field sum 0
field sqrsum 0
field min 0
field max 0
attr interpolationmode  sample-hold
attr title  "channel no, histogram"
bin	-INF	0
bin	-0.5	0
bin	-0.46666666666667	0
bin	-0.43333333333333	0
bin	-0.4	0
bin	-0.36666666666667	0
bin	-0.33333333333333	0
bin	-0.3	0
bin	-0.26666666666667	0
bin	-0.23333333333333	0
bin	-0.2	0
bin	-0.16666666666667	0
bin	-0.13333333333333	0
bin	-0.1	0
bin	-0.066666666666667	0
bin	-0.033333333333333	0
bin	-6.9388939039072e-018	1
bin	0.033333333333333	0
bin	0.066666666666667	0
bin	0.1	0
bin	0.13333333333333	0
bin	0.16666666666667	0
bin	0.2	0
bin	0.23333333333333	0
bin	0.26666666666667	0
bin	0.3	0
bin	0.33333333333333	0
bin	0.36666666666667	0
bin	0.4	0
bin	0.43333333333333	0
bin	0.46666666666667	0
bin	0.5	0
scalar MCProjectNetwork.host[7].wlan[0].radio 	radioState:count 	27
attr interpolationmode  sample-hold
attr title  "radio state (enum), count"
scalar MCProjectNetwork.host[7].wlan[0].radio 	bitrate:min 	2000000
attr interpolationmode  sample-hold
attr title  "tx bitrate, min"
attr unit  bps
scalar MCProjectNetwork.host[7].wlan[0].radio 	bitrate:max 	2000000
attr interpolationmode  sample-hold
attr title  "tx bitrate, max"
attr unit  bps
scalar MCProjectNetwork.host[7].wlan[0].radio 	bitrate:timeavg 	2000000
attr interpolationmode  sample-hold
attr title  "tx bitrate, timeavg"
attr unit  bps
scalar MCProjectNetwork.host[8].networkLayer.arp 	initiatedARPResolution:count 	0
attr title  "ARP initiated resolutions, count"
scalar MCProjectNetwork.host[8].networkLayer.arp 	sentReply:count 	0
attr title  "ARP replies sent, count"
scalar MCProjectNetwork.host[8].networkLayer.arp 	sentReq:count 	0
attr title  "ARP request sent, count"
scalar MCProjectNetwork.host[8].networkLayer.arp 	failedARPResolution:count 	0
attr title  "ARP failed resolutions, count"
scalar MCProjectNetwork.host[8].networkLayer.arp 	completedARPResolution:count 	0
attr title  "ARP completed resolutions, count"
scalar MCProjectNetwork.host[8].lo0.lo 	rcvdPkFromHL:count 	0
attr interpolationmode  none
attr source  packetReceivedFromUpper
attr title  "packets received from higher layer, count"
scalar MCProjectNetwork.host[8].lo0.lo 	rcvdPkFromHL:sum(packetBytes) 	0
attr interpolationmode  none
attr source  packetReceivedFromUpper
attr title  "packets received from higher layer, sum(packetBytes)"
scalar MCProjectNetwork.host[8].lo0.lo 	passedUpPk:count 	0
attr interpolationmode  none
attr source  packetSentToUpper
attr title  "packets passed to higher layer, count"
scalar MCProjectNetwork.host[8].lo0.lo 	passedUpPk:sum(packetBytes) 	0
attr interpolationmode  none
attr source  packetSentToUpper
attr title  "packets passed to higher layer, sum(packetBytes)"
scalar MCProjectNetwork.host[8].lo0.lo 	droppedPkBitError:count 	0
attr interpolationmode  none
attr source  dropPkBitError
attr title  "packets dropped/bit error, count"
scalar MCProjectNetwork.host[8].lo0.lo 	droppedPkBitError:sum(packetBytes) 	0
attr interpolationmode  none
attr source  dropPkBitError
attr title  "packets dropped/bit error, sum(packetBytes)"
scalar MCProjectNetwork.host[8].wlan[0].mgmt 	dropPkByQueue:count 	0
attr interpolationmode  none
attr source  dropPkByQueue
attr title  "packets dropped by queue, count"
scalar MCProjectNetwork.host[8].wlan[0].mgmt 	dropPkByQueue:sum(packetBytes) 	0
attr interpolationmode  none
attr source  dropPkByQueue
attr title  "packets dropped by queue, sum(packetBytes)"
scalar MCProjectNetwork.host[8].wlan[0].mgmt 	dataQueueLen:max 	0
attr interpolationmode  sample-hold
attr title  "data queue length, max"
scalar MCProjectNetwork.host[8].wlan[0].mgmt 	dataQueueLen:timeavg 	0
attr interpolationmode  sample-hold
attr title  "data queue length, timeavg"
scalar MCProjectNetwork.host[8].wlan[0].mac 	"number of received packets" 	0
scalar MCProjectNetwork.host[8].wlan[0].mac 	"number of collisions" 	3
scalar MCProjectNetwork.host[8].wlan[0].mac 	"number of internal collisions" 	0
scalar MCProjectNetwork.host[8].wlan[0].mac 	"number of retry for AC 0" 	0
scalar MCProjectNetwork.host[8].wlan[0].mac 	"sent and received bits" 	1504
scalar MCProjectNetwork.host[8].wlan[0].mac 	"sent packet within AC 0" 	0
scalar MCProjectNetwork.host[8].wlan[0].mac 	"sent in TXOP " 	0
scalar MCProjectNetwork.host[8].wlan[0].mac 	"sentWithoutRetry AC 0" 	0
scalar MCProjectNetwork.host[8].wlan[0].mac 	"numGivenUp AC 0" 	0
scalar MCProjectNetwork.host[8].wlan[0].mac 	"numDropped AC 0" 	0
scalar MCProjectNetwork.host[8].wlan[0].mac 	rcvdPkFromHL:count 	3
attr interpolationmode  none
attr source  packetReceivedFromUpper
attr title  "packets received from higher layer, count"
scalar MCProjectNetwork.host[8].wlan[0].mac 	rcvdPkFromHL:sum(packetBytes) 	282
attr interpolationmode  none
attr source  packetReceivedFromUpper
attr title  "packets received from higher layer, sum(packetBytes)"
scalar MCProjectNetwork.host[8].wlan[0].mac 	passedUpPk:count 	14
attr interpolationmode  none
attr source  packetSentToUpper
attr title  "packets passed to higher layer, count"
scalar MCProjectNetwork.host[8].wlan[0].mac 	passedUpPk:sum(packetBytes) 	1316
attr interpolationmode  none
attr source  packetSentToUpper
attr title  "packets passed to higher layer, sum(packetBytes)"
scalar MCProjectNetwork.host[8].wlan[0].mac 	rcvdPkFromLL:count 	17
attr interpolationmode  none
attr source  packetReceivedFromLower
attr title  "packets received from lower layer, count"
scalar MCProjectNetwork.host[8].wlan[0].mac 	rcvdPkFromLL:sum(packetBytes) 	1598
attr interpolationmode  none
attr source  packetReceivedFromLower
attr title  "packets received from lower layer, sum(packetBytes)"
scalar MCProjectNetwork.host[8].wlan[0].mac 	sentDownPk:count 	2
attr interpolationmode  none
attr source  packetSentToLower
attr title  "packets sent to lower layer, count"
scalar MCProjectNetwork.host[8].wlan[0].mac 	sentDownPk:sum(packetBytes) 	188
attr interpolationmode  none
attr source  packetSentToLower
attr title  "packets sent to lower layer, sum(packetBytes)"
scalar MCProjectNetwork.host[8].wlan[0].radio 	lossRate:min 	nan
attr interpolationmode  backward-sample-hold
attr title  "packet loss rate, min"
scalar MCProjectNetwork.host[8].wlan[0].radio 	lossRate:max 	nan
attr interpolationmode  backward-sample-hold
attr title  "packet loss rate, max"
scalar MCProjectNetwork.host[8].wlan[0].radio 	lossRate:timeavg 	nan
attr interpolationmode  backward-sample-hold
attr title  "packet loss rate, timeavg"
statistic MCProjectNetwork.host[8].wlan[0].radio 	channelNo:histogram
field count 1
field mean 0
field stddev nan
field sum 0
field sqrsum 0
field min 0
field max 0
attr interpolationmode  sample-hold
attr title  "channel no, histogram"
bin	-INF	0
bin	-0.5	0
bin	-0.46666666666667	0
bin	-0.43333333333333	0
bin	-0.4	0
bin	-0.36666666666667	0
bin	-0.33333333333333	0
bin	-0.3	0
bin	-0.26666666666667	0
bin	-0.23333333333333	0
bin	-0.2	0
bin	-0.16666666666667	0
bin	-0.13333333333333	0
bin	-0.1	0
bin	-0.066666666666667	0
bin	-0.033333333333333	0
bin	-6.9388939039072e-018	1
bin	0.033333333333333	0
bin	0.066666666666667	0
bin	0.1	0
bin	0.13333333333333	0
bin	0.16666666666667	0
bin	0.2	0
bin	0.23333333333333	0
bin	0.26666666666667	0
bin	0.3	0
bin	0.33333333333333	0
bin	0.36666666666667	0
bin	0.4	0
bin	0.43333333333333	0
bin	0.46666666666667	0
bin	0.5	0
scalar MCProjectNetwork.host[8].wlan[0].radio 	radioState:count 	43
attr interpolationmode  sample-hold
attr title  "radio state (enum), count"
scalar MCProjectNetwork.host[8].wlan[0].radio 	bitrate:min 	2000000
attr interpolationmode  sample-hold
attr title  "tx bitrate, min"
attr unit  bps
scalar MCProjectNetwork.host[8].wlan[0].radio 	bitrate:max 	2000000
attr interpolationmode  sample-hold
attr title  "tx bitrate, max"
attr unit  bps
scalar MCProjectNetwork.host[8].wlan[0].radio 	bitrate:timeavg 	2000000
attr interpolationmode  sample-hold
attr title  "tx bitrate, timeavg"
attr unit  bps
scalar MCProjectNetwork.host[9].networkLayer.arp 	initiatedARPResolution:count 	0
attr title  "ARP initiated resolutions, count"
scalar MCProjectNetwork.host[9].networkLayer.arp 	sentReply:count 	0
attr title  "ARP replies sent, count"
scalar MCProjectNetwork.host[9].networkLayer.arp 	sentReq:count 	0
attr title  "ARP request sent, count"
scalar MCProjectNetwork.host[9].networkLayer.arp 	failedARPResolution:count 	0
attr title  "ARP failed resolutions, count"
scalar MCProjectNetwork.host[9].networkLayer.arp 	completedARPResolution:count 	0
attr title  "ARP completed resolutions, count"
scalar MCProjectNetwork.host[9].lo0.lo 	rcvdPkFromHL:count 	0
attr interpolationmode  none
attr source  packetReceivedFromUpper
attr title  "packets received from higher layer, count"
scalar MCProjectNetwork.host[9].lo0.lo 	rcvdPkFromHL:sum(packetBytes) 	0
attr interpolationmode  none
attr source  packetReceivedFromUpper
attr title  "packets received from higher layer, sum(packetBytes)"
scalar MCProjectNetwork.host[9].lo0.lo 	passedUpPk:count 	0
attr interpolationmode  none
attr source  packetSentToUpper
attr title  "packets passed to higher layer, count"
scalar MCProjectNetwork.host[9].lo0.lo 	passedUpPk:sum(packetBytes) 	0
attr interpolationmode  none
attr source  packetSentToUpper
attr title  "packets passed to higher layer, sum(packetBytes)"
scalar MCProjectNetwork.host[9].lo0.lo 	droppedPkBitError:count 	0
attr interpolationmode  none
attr source  dropPkBitError
attr title  "packets dropped/bit error, count"
scalar MCProjectNetwork.host[9].lo0.lo 	droppedPkBitError:sum(packetBytes) 	0
attr interpolationmode  none
attr source  dropPkBitError
attr title  "packets dropped/bit error, sum(packetBytes)"
scalar MCProjectNetwork.host[9].wlan[0].mgmt 	dropPkByQueue:count 	0
attr interpolationmode  none
attr source  dropPkByQueue
attr title  "packets dropped by queue, count"
scalar MCProjectNetwork.host[9].wlan[0].mgmt 	dropPkByQueue:sum(packetBytes) 	0
attr interpolationmode  none
attr source  dropPkByQueue
attr title  "packets dropped by queue, sum(packetBytes)"
scalar MCProjectNetwork.host[9].wlan[0].mgmt 	dataQueueLen:max 	0
attr interpolationmode  sample-hold
attr title  "data queue length, max"
scalar MCProjectNetwork.host[9].wlan[0].mgmt 	dataQueueLen:timeavg 	0
attr interpolationmode  sample-hold
attr title  "data queue length, timeavg"
scalar MCProjectNetwork.host[9].wlan[0].mac 	"number of received packets" 	0
scalar MCProjectNetwork.host[9].wlan[0].mac 	"number of collisions" 	1
scalar MCProjectNetwork.host[9].wlan[0].mac 	"number of internal collisions" 	0
scalar MCProjectNetwork.host[9].wlan[0].mac 	"number of retry for AC 0" 	0
scalar MCProjectNetwork.host[9].wlan[0].mac 	"sent and received bits" 	752
scalar MCProjectNetwork.host[9].wlan[0].mac 	"sent packet within AC 0" 	0
scalar MCProjectNetwork.host[9].wlan[0].mac 	"sent in TXOP " 	0
scalar MCProjectNetwork.host[9].wlan[0].mac 	"sentWithoutRetry AC 0" 	0
scalar MCProjectNetwork.host[9].wlan[0].mac 	"numGivenUp AC 0" 	0
scalar MCProjectNetwork.host[9].wlan[0].mac 	"numDropped AC 0" 	0
scalar MCProjectNetwork.host[9].wlan[0].mac 	rcvdPkFromHL:count 	1
attr interpolationmode  none
attr source  packetReceivedFromUpper
attr title  "packets received from higher layer, count"
scalar MCProjectNetwork.host[9].wlan[0].mac 	rcvdPkFromHL:sum(packetBytes) 	94
attr interpolationmode  none
attr source  packetReceivedFromUpper
attr title  "packets received from higher layer, sum(packetBytes)"
scalar MCProjectNetwork.host[9].wlan[0].mac 	passedUpPk:count 	9
attr interpolationmode  none
attr source  packetSentToUpper
attr title  "packets passed to higher layer, count"
scalar MCProjectNetwork.host[9].wlan[0].mac 	passedUpPk:sum(packetBytes) 	846
attr interpolationmode  none
attr source  packetSentToUpper
attr title  "packets passed to higher layer, sum(packetBytes)"
scalar MCProjectNetwork.host[9].wlan[0].mac 	rcvdPkFromLL:count 	10
attr interpolationmode  none
attr source  packetReceivedFromLower
attr title  "packets received from lower layer, count"
scalar MCProjectNetwork.host[9].wlan[0].mac 	rcvdPkFromLL:sum(packetBytes) 	940
attr interpolationmode  none
attr source  packetReceivedFromLower
attr title  "packets received from lower layer, sum(packetBytes)"
scalar MCProjectNetwork.host[9].wlan[0].mac 	sentDownPk:count 	1
attr interpolationmode  none
attr source  packetSentToLower
attr title  "packets sent to lower layer, count"
scalar MCProjectNetwork.host[9].wlan[0].mac 	sentDownPk:sum(packetBytes) 	94
attr interpolationmode  none
attr source  packetSentToLower
attr title  "packets sent to lower layer, sum(packetBytes)"
scalar MCProjectNetwork.host[9].wlan[0].radio 	lossRate:min 	nan
attr interpolationmode  backward-sample-hold
attr title  "packet loss rate, min"
scalar MCProjectNetwork.host[9].wlan[0].radio 	lossRate:max 	nan
attr interpolationmode  backward-sample-hold
attr title  "packet loss rate, max"
scalar MCProjectNetwork.host[9].wlan[0].radio 	lossRate:timeavg 	nan
attr interpolationmode  backward-sample-hold
attr title  "packet loss rate, timeavg"
statistic MCProjectNetwork.host[9].wlan[0].radio 	channelNo:histogram
field count 1
field mean 0
field stddev nan
field sum 0
field sqrsum 0
field min 0
field max 0
attr interpolationmode  sample-hold
attr title  "channel no, histogram"
bin	-INF	0
bin	-0.5	0
bin	-0.46666666666667	0
bin	-0.43333333333333	0
bin	-0.4	0
bin	-0.36666666666667	0
bin	-0.33333333333333	0
bin	-0.3	0
bin	-0.26666666666667	0
bin	-0.23333333333333	0
bin	-0.2	0
bin	-0.16666666666667	0
bin	-0.13333333333333	0
bin	-0.1	0
bin	-0.066666666666667	0
bin	-0.033333333333333	0
bin	-6.9388939039072e-018	1
bin	0.033333333333333	0
bin	0.066666666666667	0
bin	0.1	0
bin	0.13333333333333	0
bin	0.16666666666667	0
bin	0.2	0
bin	0.23333333333333	0
bin	0.26666666666667	0
bin	0.3	0
bin	0.33333333333333	0
bin	0.36666666666667	0
bin	0.4	0
bin	0.43333333333333	0
bin	0.46666666666667	0
bin	0.5	0
scalar MCProjectNetwork.host[9].wlan[0].radio 	radioState:count 	29
attr interpolationmode  sample-hold
attr title  "radio state (enum), count"
scalar MCProjectNetwork.host[9].wlan[0].radio 	bitrate:min 	2000000
attr interpolationmode  sample-hold
attr title  "tx bitrate, min"
attr unit  bps
scalar MCProjectNetwork.host[9].wlan[0].radio 	bitrate:max 	2000000
attr interpolationmode  sample-hold
attr title  "tx bitrate, max"
attr unit  bps
scalar MCProjectNetwork.host[9].wlan[0].radio 	bitrate:timeavg 	2000000
attr interpolationmode  sample-hold
attr title  "tx bitrate, timeavg"
attr unit  bps
scalar MCProjectNetwork.host[10].networkLayer.arp 	initiatedARPResolution:count 	0
attr title  "ARP initiated resolutions, count"
scalar MCProjectNetwork.host[10].networkLayer.arp 	sentReply:count 	0
attr title  "ARP replies sent, count"
scalar MCProjectNetwork.host[10].networkLayer.arp 	sentReq:count 	0
attr title  "ARP request sent, count"
scalar MCProjectNetwork.host[10].networkLayer.arp 	failedARPResolution:count 	0
attr title  "ARP failed resolutions, count"
scalar MCProjectNetwork.host[10].networkLayer.arp 	completedARPResolution:count 	0
attr title  "ARP completed resolutions, count"
scalar MCProjectNetwork.host[10].lo0.lo 	rcvdPkFromHL:count 	0
attr interpolationmode  none
attr source  packetReceivedFromUpper
attr title  "packets received from higher layer, count"
scalar MCProjectNetwork.host[10].lo0.lo 	rcvdPkFromHL:sum(packetBytes) 	0
attr interpolationmode  none
attr source  packetReceivedFromUpper
attr title  "packets received from higher layer, sum(packetBytes)"
scalar MCProjectNetwork.host[10].lo0.lo 	passedUpPk:count 	0
attr interpolationmode  none
attr source  packetSentToUpper
attr title  "packets passed to higher layer, count"
scalar MCProjectNetwork.host[10].lo0.lo 	passedUpPk:sum(packetBytes) 	0
attr interpolationmode  none
attr source  packetSentToUpper
attr title  "packets passed to higher layer, sum(packetBytes)"
scalar MCProjectNetwork.host[10].lo0.lo 	droppedPkBitError:count 	0
attr interpolationmode  none
attr source  dropPkBitError
attr title  "packets dropped/bit error, count"
scalar MCProjectNetwork.host[10].lo0.lo 	droppedPkBitError:sum(packetBytes) 	0
attr interpolationmode  none
attr source  dropPkBitError
attr title  "packets dropped/bit error, sum(packetBytes)"
scalar MCProjectNetwork.host[10].wlan[0].mgmt 	dropPkByQueue:count 	0
attr interpolationmode  none
attr source  dropPkByQueue
attr title  "packets dropped by queue, count"
scalar MCProjectNetwork.host[10].wlan[0].mgmt 	dropPkByQueue:sum(packetBytes) 	0
attr interpolationmode  none
attr source  dropPkByQueue
attr title  "packets dropped by queue, sum(packetBytes)"
scalar MCProjectNetwork.host[10].wlan[0].mgmt 	dataQueueLen:max 	0
attr interpolationmode  sample-hold
attr title  "data queue length, max"
scalar MCProjectNetwork.host[10].wlan[0].mgmt 	dataQueueLen:timeavg 	0
attr interpolationmode  sample-hold
attr title  "data queue length, timeavg"
scalar MCProjectNetwork.host[10].wlan[0].mac 	"number of received packets" 	0
scalar MCProjectNetwork.host[10].wlan[0].mac 	"number of collisions" 	4
scalar MCProjectNetwork.host[10].wlan[0].mac 	"number of internal collisions" 	0
scalar MCProjectNetwork.host[10].wlan[0].mac 	"number of retry for AC 0" 	0
scalar MCProjectNetwork.host[10].wlan[0].mac 	"sent and received bits" 	1504
scalar MCProjectNetwork.host[10].wlan[0].mac 	"sent packet within AC 0" 	0
scalar MCProjectNetwork.host[10].wlan[0].mac 	"sent in TXOP " 	0
scalar MCProjectNetwork.host[10].wlan[0].mac 	"sentWithoutRetry AC 0" 	0
scalar MCProjectNetwork.host[10].wlan[0].mac 	"numGivenUp AC 0" 	0
scalar MCProjectNetwork.host[10].wlan[0].mac 	"numDropped AC 0" 	0
scalar MCProjectNetwork.host[10].wlan[0].mac 	rcvdPkFromHL:count 	2
attr interpolationmode  none
attr source  packetReceivedFromUpper
attr title  "packets received from higher layer, count"
scalar MCProjectNetwork.host[10].wlan[0].mac 	rcvdPkFromHL:sum(packetBytes) 	188
attr interpolationmode  none
attr source  packetReceivedFromUpper
attr title  "packets received from higher layer, sum(packetBytes)"
scalar MCProjectNetwork.host[10].wlan[0].mac 	passedUpPk:count 	13
attr interpolationmode  none
attr source  packetSentToUpper
attr title  "packets passed to higher layer, count"
scalar MCProjectNetwork.host[10].wlan[0].mac 	passedUpPk:sum(packetBytes) 	1222
attr interpolationmode  none
attr source  packetSentToUpper
attr title  "packets passed to higher layer, sum(packetBytes)"
scalar MCProjectNetwork.host[10].wlan[0].mac 	rcvdPkFromLL:count 	17
attr interpolationmode  none
attr source  packetReceivedFromLower
attr title  "packets received from lower layer, count"
scalar MCProjectNetwork.host[10].wlan[0].mac 	rcvdPkFromLL:sum(packetBytes) 	1598
attr interpolationmode  none
attr source  packetReceivedFromLower
attr title  "packets received from lower layer, sum(packetBytes)"
scalar MCProjectNetwork.host[10].wlan[0].mac 	sentDownPk:count 	2
attr interpolationmode  none
attr source  packetSentToLower
attr title  "packets sent to lower layer, count"
scalar MCProjectNetwork.host[10].wlan[0].mac 	sentDownPk:sum(packetBytes) 	188
attr interpolationmode  none
attr source  packetSentToLower
attr title  "packets sent to lower layer, sum(packetBytes)"
scalar MCProjectNetwork.host[10].wlan[0].radio 	lossRate:min 	nan
attr interpolationmode  backward-sample-hold
attr title  "packet loss rate, min"
scalar MCProjectNetwork.host[10].wlan[0].radio 	lossRate:max 	nan
attr interpolationmode  backward-sample-hold
attr title  "packet loss rate, max"
scalar MCProjectNetwork.host[10].wlan[0].radio 	lossRate:timeavg 	nan
attr interpolationmode  backward-sample-hold
attr title  "packet loss rate, timeavg"
statistic MCProjectNetwork.host[10].wlan[0].radio 	channelNo:histogram
field count 1
field mean 0
field stddev nan
field sum 0
field sqrsum 0
field min 0
field max 0
attr interpolationmode  sample-hold
attr title  "channel no, histogram"
bin	-INF	0
bin	-0.5	0
bin	-0.46666666666667	0
bin	-0.43333333333333	0
bin	-0.4	0
bin	-0.36666666666667	0
bin	-0.33333333333333	0
bin	-0.3	0
bin	-0.26666666666667	0
bin	-0.23333333333333	0
bin	-0.2	0
bin	-0.16666666666667	0
bin	-0.13333333333333	0
bin	-0.1	0
bin	-0.066666666666667	0
bin	-0.033333333333333	0
bin	-6.9388939039072e-018	1
bin	0.033333333333333	0
bin	0.066666666666667	0
bin	0.1	0
bin	0.13333333333333	0
bin	0.16666666666667	0
bin	0.2	0
bin	0.23333333333333	0
bin	0.26666666666667	0
bin	0.3	0
bin	0.33333333333333	0
bin	0.36666666666667	0
bin	0.4	0
bin	0.43333333333333	0
bin	0.46666666666667	0
bin	0.5	0
scalar MCProjectNetwork.host[10].wlan[0].radio 	radioState:count 	39
attr interpolationmode  sample-hold
attr title  "radio state (enum), count"
scalar MCProjectNetwork.host[10].wlan[0].radio 	bitrate:min 	2000000
attr interpolationmode  sample-hold
attr title  "tx bitrate, min"
attr unit  bps
scalar MCProjectNetwork.host[10].wlan[0].radio 	bitrate:max 	2000000
attr interpolationmode  sample-hold
attr title  "tx bitrate, max"
attr unit  bps
scalar MCProjectNetwork.host[10].wlan[0].radio 	bitrate:timeavg 	2000000
attr interpolationmode  sample-hold
attr title  "tx bitrate, timeavg"
attr unit  bps
scalar MCProjectNetwork.host[11].networkLayer.arp 	initiatedARPResolution:count 	0
attr title  "ARP initiated resolutions, count"
scalar MCProjectNetwork.host[11].networkLayer.arp 	sentReply:count 	0
attr title  "ARP replies sent, count"
scalar MCProjectNetwork.host[11].networkLayer.arp 	sentReq:count 	0
attr title  "ARP request sent, count"
scalar MCProjectNetwork.host[11].networkLayer.arp 	failedARPResolution:count 	0
attr title  "ARP failed resolutions, count"
scalar MCProjectNetwork.host[11].networkLayer.arp 	completedARPResolution:count 	0
attr title  "ARP completed resolutions, count"
scalar MCProjectNetwork.host[11].lo0.lo 	rcvdPkFromHL:count 	0
attr interpolationmode  none
attr source  packetReceivedFromUpper
attr title  "packets received from higher layer, count"
scalar MCProjectNetwork.host[11].lo0.lo 	rcvdPkFromHL:sum(packetBytes) 	0
attr interpolationmode  none
attr source  packetReceivedFromUpper
attr title  "packets received from higher layer, sum(packetBytes)"
scalar MCProjectNetwork.host[11].lo0.lo 	passedUpPk:count 	0
attr interpolationmode  none
attr source  packetSentToUpper
attr title  "packets passed to higher layer, count"
scalar MCProjectNetwork.host[11].lo0.lo 	passedUpPk:sum(packetBytes) 	0
attr interpolationmode  none
attr source  packetSentToUpper
attr title  "packets passed to higher layer, sum(packetBytes)"
scalar MCProjectNetwork.host[11].lo0.lo 	droppedPkBitError:count 	0
attr interpolationmode  none
attr source  dropPkBitError
attr title  "packets dropped/bit error, count"
scalar MCProjectNetwork.host[11].lo0.lo 	droppedPkBitError:sum(packetBytes) 	0
attr interpolationmode  none
attr source  dropPkBitError
attr title  "packets dropped/bit error, sum(packetBytes)"
scalar MCProjectNetwork.host[11].wlan[0].mgmt 	dropPkByQueue:count 	0
attr interpolationmode  none
attr source  dropPkByQueue
attr title  "packets dropped by queue, count"
scalar MCProjectNetwork.host[11].wlan[0].mgmt 	dropPkByQueue:sum(packetBytes) 	0
attr interpolationmode  none
attr source  dropPkByQueue
attr title  "packets dropped by queue, sum(packetBytes)"
scalar MCProjectNetwork.host[11].wlan[0].mgmt 	dataQueueLen:max 	0
attr interpolationmode  sample-hold
attr title  "data queue length, max"
scalar MCProjectNetwork.host[11].wlan[0].mgmt 	dataQueueLen:timeavg 	0
attr interpolationmode  sample-hold
attr title  "data queue length, timeavg"
scalar MCProjectNetwork.host[11].wlan[0].mac 	"number of received packets" 	0
scalar MCProjectNetwork.host[11].wlan[0].mac 	"number of collisions" 	1
scalar MCProjectNetwork.host[11].wlan[0].mac 	"number of internal collisions" 	0
scalar MCProjectNetwork.host[11].wlan[0].mac 	"number of retry for AC 0" 	0
scalar MCProjectNetwork.host[11].wlan[0].mac 	"sent and received bits" 	2256
scalar MCProjectNetwork.host[11].wlan[0].mac 	"sent packet within AC 0" 	0
scalar MCProjectNetwork.host[11].wlan[0].mac 	"sent in TXOP " 	0
scalar MCProjectNetwork.host[11].wlan[0].mac 	"sentWithoutRetry AC 0" 	0
scalar MCProjectNetwork.host[11].wlan[0].mac 	"numGivenUp AC 0" 	0
scalar MCProjectNetwork.host[11].wlan[0].mac 	"numDropped AC 0" 	0
scalar MCProjectNetwork.host[11].wlan[0].mac 	rcvdPkFromHL:count 	3
attr interpolationmode  none
attr source  packetReceivedFromUpper
attr title  "packets received from higher layer, count"
scalar MCProjectNetwork.host[11].wlan[0].mac 	rcvdPkFromHL:sum(packetBytes) 	282
attr interpolationmode  none
attr source  packetReceivedFromUpper
attr title  "packets received from higher layer, sum(packetBytes)"
scalar MCProjectNetwork.host[11].wlan[0].mac 	passedUpPk:count 	10
attr interpolationmode  none
attr source  packetSentToUpper
attr title  "packets passed to higher layer, count"
scalar MCProjectNetwork.host[11].wlan[0].mac 	passedUpPk:sum(packetBytes) 	940
attr interpolationmode  none
attr source  packetSentToUpper
attr title  "packets passed to higher layer, sum(packetBytes)"
scalar MCProjectNetwork.host[11].wlan[0].mac 	rcvdPkFromLL:count 	11
attr interpolationmode  none
attr source  packetReceivedFromLower
attr title  "packets received from lower layer, count"
scalar MCProjectNetwork.host[11].wlan[0].mac 	rcvdPkFromLL:sum(packetBytes) 	1034
attr interpolationmode  none
attr source  packetReceivedFromLower
attr title  "packets received from lower layer, sum(packetBytes)"
scalar MCProjectNetwork.host[11].wlan[0].mac 	sentDownPk:count 	3
attr interpolationmode  none
attr source  packetSentToLower
attr title  "packets sent to lower layer, count"
scalar MCProjectNetwork.host[11].wlan[0].mac 	sentDownPk:sum(packetBytes) 	282
attr interpolationmode  none
attr source  packetSentToLower
attr title  "packets sent to lower layer, sum(packetBytes)"
scalar MCProjectNetwork.host[11].wlan[0].radio 	lossRate:min 	nan
attr interpolationmode  backward-sample-hold
attr title  "packet loss rate, min"
scalar MCProjectNetwork.host[11].wlan[0].radio 	lossRate:max 	nan
attr interpolationmode  backward-sample-hold
attr title  "packet loss rate, max"
scalar MCProjectNetwork.host[11].wlan[0].radio 	lossRate:timeavg 	nan
attr interpolationmode  backward-sample-hold
attr title  "packet loss rate, timeavg"
statistic MCProjectNetwork.host[11].wlan[0].radio 	channelNo:histogram
field count 1
field mean 0
field stddev nan
field sum 0
field sqrsum 0
field min 0
field max 0
attr interpolationmode  sample-hold
[...]
attr interpolationmode  sample-hold
attr title  "tx bitrate, max"
attr unit  bps
scalar MCProjectNetwork.host[16].wlan[0].radio 	bitrate:timeavg 	2000000
attr interpolationmode  sample-hold
attr title  "tx bitrate, timeavg"
attr unit  bps
scalar MCProjectNetwork.host[17].networkLayer.arp 	initiatedARPResolution:count 	0
attr title  "ARP initiated resolutions, count"
scalar MCProjectNetwork.host[17].networkLayer.arp 	sentReply:count 	0
attr title  "ARP replies sent, count"
scalar MCProjectNetwork.host[17].networkLayer.arp 	sentReq:count 	0
attr title  "ARP request sent, count"
scalar MCProjectNetwork.host[17].networkLayer.arp 	failedARPResolution:count 	0
attr title  "ARP failed resolutions, count"
scalar MCProjectNetwork.host[17].networkLayer.arp 	completedARPResolution:count 	0
attr title  "ARP completed resolutions, count"
scalar MCProjectNetwork.host[17].lo0.lo 	rcvdPkFromHL:count 	0
attr interpolationmode  none
attr source  packetReceivedFromUpper
attr title  "packets received from higher layer, count"
scalar MCProjectNetwork.host[17].lo0.lo 	rcvdPkFromHL:sum(packetBytes) 	0
attr interpolationmode  none
attr source  packetReceivedFromUpper
attr title  "packets received from higher layer, sum(packetBytes)"
scalar MCProjectNetwork.host[17].lo0.lo 	passedUpPk:count 	0
attr interpolationmode  none
attr source  packetSentToUpper
attr title  "packets passed to higher layer, count"
scalar MCProjectNetwork.host[17].lo0.lo 	passedUpPk:sum(packetBytes) 	0
attr interpolationmode  none
attr source  packetSentToUpper
attr title  "packets passed to higher layer, sum(packetBytes)"
scalar MCProjectNetwork.host[17].lo0.lo 	droppedPkBitError:count 	0
attr interpolationmode  none
attr source  dropPkBitError
attr title  "packets dropped/bit error, count"
scalar MCProjectNetwork.host[17].lo0.lo 	droppedPkBitError:sum(packetBytes) 	0
attr interpolationmode  none
attr source  dropPkBitError
attr title  "packets dropped/bit error, sum(packetBytes)"
scalar MCProjectNetwork.host[17].wlan[0].mgmt 	dropPkByQueue:count 	0
attr interpolationmode  none
attr source  dropPkByQueue
attr title  "packets dropped by queue, count"
scalar MCProjectNetwork.host[17].wlan[0].mgmt 	dropPkByQueue:sum(packetBytes) 	0
attr interpolationmode  none
attr source  dropPkByQueue
attr title  "packets dropped by queue, sum(packetBytes)"
scalar MCProjectNetwork.host[17].wlan[0].mgmt 	dataQueueLen:max 	0
attr interpolationmode  sample-hold
attr title  "data queue length, max"
scalar MCProjectNetwork.host[17].wlan[0].mgmt 	dataQueueLen:timeavg 	0
attr interpolationmode  sample-hold
attr title  "data queue length, timeavg"
scalar MCProjectNetwork.host[17].wlan[0].mac 	"number of received packets" 	0
scalar MCProjectNetwork.host[17].wlan[0].mac 	"number of collisions" 	6
scalar MCProjectNetwork.host[17].wlan[0].mac 	"number of internal collisions" 	0
scalar MCProjectNetwork.host[17].wlan[0].mac 	"number of retry for AC 0" 	0
scalar MCProjectNetwork.host[17].wlan[0].mac 	"sent and received bits" 	752
scalar MCProjectNetwork.host[17].wlan[0].mac 	"sent packet within AC 0" 	0
scalar MCProjectNetwork.host[17].wlan[0].mac 	"sent in TXOP " 	0
scalar MCProjectNetwork.host[17].wlan[0].mac 	"sentWithoutRetry AC 0" 	0
scalar MCProjectNetwork.host[17].wlan[0].mac 	"numGivenUp AC 0" 	0
scalar MCProjectNetwork.host[17].wlan[0].mac 	"numDropped AC 0" 	0
scalar MCProjectNetwork.host[17].wlan[0].mac 	rcvdPkFromHL:count 	1
attr interpolationmode  none
attr source  packetReceivedFromUpper
attr title  "packets received from higher layer, count"
scalar MCProjectNetwork.host[17].wlan[0].mac 	rcvdPkFromHL:sum(packetBytes) 	94
attr interpolationmode  none
attr source  packetReceivedFromUpper
attr title  "packets received from higher layer, sum(packetBytes)"
scalar MCProjectNetwork.host[17].wlan[0].mac 	passedUpPk:count 	8
attr interpolationmode  none
attr source  packetSentToUpper
attr title  "packets passed to higher layer, count"
scalar MCProjectNetwork.host[17].wlan[0].mac 	passedUpPk:sum(packetBytes) 	752
attr interpolationmode  none
attr source  packetSentToUpper
attr title  "packets passed to higher layer, sum(packetBytes)"
scalar MCProjectNetwork.host[17].wlan[0].mac 	rcvdPkFromLL:count 	14
attr interpolationmode  none
attr source  packetReceivedFromLower
attr title  "packets received from lower layer, count"
scalar MCProjectNetwork.host[17].wlan[0].mac 	rcvdPkFromLL:sum(packetBytes) 	1264
attr interpolationmode  none
attr source  packetReceivedFromLower
attr title  "packets received from lower layer, sum(packetBytes)"
scalar MCProjectNetwork.host[17].wlan[0].mac 	sentDownPk:count 	1
attr interpolationmode  none
attr source  packetSentToLower
attr title  "packets sent to lower layer, count"
scalar MCProjectNetwork.host[17].wlan[0].mac 	sentDownPk:sum(packetBytes) 	94
attr interpolationmode  none
attr source  packetSentToLower
attr title  "packets sent to lower layer, sum(packetBytes)"
scalar MCProjectNetwork.host[17].wlan[0].radio 	lossRate:min 	nan
attr interpolationmode  backward-sample-hold
attr title  "packet loss rate, min"
scalar MCProjectNetwork.host[17].wlan[0].radio 	lossRate:max 	nan
attr interpolationmode  backward-sample-hold
attr title  "packet loss rate, max"
scalar MCProjectNetwork.host[17].wlan[0].radio 	lossRate:timeavg 	nan
attr interpolationmode  backward-sample-hold
attr title  "packet loss rate, timeavg"
statistic MCProjectNetwork.host[17].wlan[0].radio 	channelNo:histogram
field count 1
field mean 0
field stddev nan
field sum 0
field sqrsum 0
field min 0
field max 0
attr interpolationmode  sample-hold
attr title  "channel no, histogram"
bin	-INF	0
bin	-0.5	0
bin	-0.46666666666667	0
bin	-0.43333333333333	0
bin	-0.4	0
bin	-0.36666666666667	0
bin	-0.33333333333333	0
bin	-0.3	0
bin	-0.26666666666667	0
bin	-0.23333333333333	0
bin	-0.2	0
bin	-0.16666666666667	0
bin	-0.13333333333333	0
bin	-0.1	0
bin	-0.066666666666667	0
bin	-0.033333333333333	0
bin	-6.9388939039072e-018	1
bin	0.033333333333333	0
bin	0.066666666666667	0
bin	0.1	0
bin	0.13333333333333	0
bin	0.16666666666667	0
bin	0.2	0
bin	0.23333333333333	0
bin	0.26666666666667	0
bin	0.3	0
bin	0.33333333333333	0
bin	0.36666666666667	0
bin	0.4	0
bin	0.43333333333333	0
bin	0.46666666666667	0
bin	0.5	0
scalar MCProjectNetwork.host[17].wlan[0].radio 	radioState:count 	29
attr interpolationmode  sample-hold
attr title  "radio state (enum), count"
scalar MCProjectNetwork.host[17].wlan[0].radio 	bitrate:min 	2000000
attr interpolationmode  sample-hold
attr title  "tx bitrate, min"
attr unit  bps
scalar MCProjectNetwork.host[17].wlan[0].radio 	bitrate:max 	2000000
attr interpolationmode  sample-hold
attr title  "tx bitrate, max"
attr unit  bps
scalar MCProjectNetwork.host[17].wlan[0].radio 	bitrate:timeavg 	2000000
attr interpolationmode  sample-hold
attr title  "tx bitrate, timeavg"
attr unit  bps
scalar MCProjectNetwork.host[18].networkLayer.arp 	initiatedARPResolution:count 	0
attr title  "ARP initiated resolutions, count"
scalar MCProjectNetwork.host[18].networkLayer.arp 	sentReply:count 	0
attr title  "ARP replies sent, count"
scalar MCProjectNetwork.host[18].networkLayer.arp 	sentReq:count 	0
attr title  "ARP request sent, count"
scalar MCProjectNetwork.host[18].networkLayer.arp 	failedARPResolution:count 	0
attr title  "ARP failed resolutions, count"
scalar MCProjectNetwork.host[18].networkLayer.arp 	completedARPResolution:count 	0
attr title  "ARP completed resolutions, count"
scalar MCProjectNetwork.host[18].lo0.lo 	rcvdPkFromHL:count 	0
attr interpolationmode  none
attr source  packetReceivedFromUpper
attr title  "packets received from higher layer, count"
scalar MCProjectNetwork.host[18].lo0.lo 	rcvdPkFromHL:sum(packetBytes) 	0
attr interpolationmode  none
attr source  packetReceivedFromUpper
attr title  "packets received from higher layer, sum(packetBytes)"
scalar MCProjectNetwork.host[18].lo0.lo 	passedUpPk:count 	0
attr interpolationmode  none
attr source  packetSentToUpper
attr title  "packets passed to higher layer, count"
scalar MCProjectNetwork.host[18].lo0.lo 	passedUpPk:sum(packetBytes) 	0
attr interpolationmode  none
attr source  packetSentToUpper
attr title  "packets passed to higher layer, sum(packetBytes)"
scalar MCProjectNetwork.host[18].lo0.lo 	droppedPkBitError:count 	0
attr interpolationmode  none
attr source  dropPkBitError
attr title  "packets dropped/bit error, count"
scalar MCProjectNetwork.host[18].lo0.lo 	droppedPkBitError:sum(packetBytes) 	0
attr interpolationmode  none
attr source  dropPkBitError
attr title  "packets dropped/bit error, sum(packetBytes)"
scalar MCProjectNetwork.host[18].wlan[0].mgmt 	dropPkByQueue:count 	0
attr interpolationmode  none
attr source  dropPkByQueue
attr title  "packets dropped by queue, count"
scalar MCProjectNetwork.host[18].wlan[0].mgmt 	dropPkByQueue:sum(packetBytes) 	0
attr interpolationmode  none
attr source  dropPkByQueue
attr title  "packets dropped by queue, sum(packetBytes)"
scalar MCProjectNetwork.host[18].wlan[0].mgmt 	dataQueueLen:max 	0
attr interpolationmode  sample-hold
attr title  "data queue length, max"
scalar MCProjectNetwork.host[18].wlan[0].mgmt 	dataQueueLen:timeavg 	0
attr interpolationmode  sample-hold
attr title  "data queue length, timeavg"
scalar MCProjectNetwork.host[18].wlan[0].mac 	"number of received packets" 	0
scalar MCProjectNetwork.host[18].wlan[0].mac 	"number of collisions" 	0
scalar MCProjectNetwork.host[18].wlan[0].mac 	"number of internal collisions" 	0
scalar MCProjectNetwork.host[18].wlan[0].mac 	"number of retry for AC 0" 	0
scalar MCProjectNetwork.host[18].wlan[0].mac 	"sent and received bits" 	1504
scalar MCProjectNetwork.host[18].wlan[0].mac 	"sent packet within AC 0" 	0
scalar MCProjectNetwork.host[18].wlan[0].mac 	"sent in TXOP " 	0
scalar MCProjectNetwork.host[18].wlan[0].mac 	"sentWithoutRetry AC 0" 	0
scalar MCProjectNetwork.host[18].wlan[0].mac 	"numGivenUp AC 0" 	0
scalar MCProjectNetwork.host[18].wlan[0].mac 	"numDropped AC 0" 	0
scalar MCProjectNetwork.host[18].wlan[0].mac 	rcvdPkFromHL:count 	2
attr interpolationmode  none
attr source  packetReceivedFromUpper
attr title  "packets received from higher layer, count"
scalar MCProjectNetwork.host[18].wlan[0].mac 	rcvdPkFromHL:sum(packetBytes) 	188
attr interpolationmode  none
attr source  packetReceivedFromUpper
attr title  "packets received from higher layer, sum(packetBytes)"
scalar MCProjectNetwork.host[18].wlan[0].mac 	passedUpPk:count 	5
attr interpolationmode  none
attr source  packetSentToUpper
attr title  "packets passed to higher layer, count"
scalar MCProjectNetwork.host[18].wlan[0].mac 	passedUpPk:sum(packetBytes) 	470
attr interpolationmode  none
attr source  packetSentToUpper
attr title  "packets passed to higher layer, sum(packetBytes)"
scalar MCProjectNetwork.host[18].wlan[0].mac 	rcvdPkFromLL:count 	5
attr interpolationmode  none
attr source  packetReceivedFromLower
attr title  "packets received from lower layer, count"
scalar MCProjectNetwork.host[18].wlan[0].mac 	rcvdPkFromLL:sum(packetBytes) 	470
attr interpolationmode  none
attr source  packetReceivedFromLower
attr title  "packets received from lower layer, sum(packetBytes)"
scalar MCProjectNetwork.host[18].wlan[0].mac 	sentDownPk:count 	2
attr interpolationmode  none
attr source  packetSentToLower
attr title  "packets sent to lower layer, count"
scalar MCProjectNetwork.host[18].wlan[0].mac 	sentDownPk:sum(packetBytes) 	188
attr interpolationmode  none
attr source  packetSentToLower
attr title  "packets sent to lower layer, sum(packetBytes)"
scalar MCProjectNetwork.host[18].wlan[0].radio 	lossRate:min 	nan
attr interpolationmode  backward-sample-hold
attr title  "packet loss rate, min"
scalar MCProjectNetwork.host[18].wlan[0].radio 	lossRate:max 	nan
attr interpolationmode  backward-sample-hold
attr title  "packet loss rate, max"
scalar MCProjectNetwork.host[18].wlan[0].radio 	lossRate:timeavg 	nan
attr interpolationmode  backward-sample-hold
attr title  "packet loss rate, timeavg"
statistic MCProjectNetwork.host[18].wlan[0].radio 	channelNo:histogram
field count 1
field mean 0
field stddev nan
field sum 0
field sqrsum 0
field min 0
field max 0
attr interpolationmode  sample-hold
attr title  "channel no, histogram"
bin	-INF	0
bin	-0.5	0
bin	-0.46666666666667	0
bin	-0.43333333333333	0
bin	-0.4	0
bin	-0.36666666666667	0
bin	-0.33333333333333	0
bin	-0.3	0
bin	-0.26666666666667	0
bin	-0.23333333333333	0
bin	-0.2	0
bin	-0.16666666666667	0
bin	-0.13333333333333	0
bin	-0.1	0
bin	-0.066666666666667	0
bin	-0.033333333333333	0
bin	-6.9388939039072e-018	1
bin	0.033333333333333	0
bin	0.066666666666667	0
bin	0.1	0
bin	0.13333333333333	0
bin	0.16666666666667	0
bin	0.2	0
bin	0.23333333333333	0
bin	0.26666666666667	0
bin	0.3	0
bin	0.33333333333333	0
bin	0.36666666666667	0
bin	0.4	0
bin	0.43333333333333	0
bin	0.46666666666667	0
bin	0.5	0
scalar MCProjectNetwork.host[18].wlan[0].radio 	radioState:count 	25
attr interpolationmode  sample-hold
attr title  "radio state (enum), count"
scalar MCProjectNetwork.host[18].wlan[0].radio 	bitrate:min 	2000000
attr interpolationmode  sample-hold
attr title  "tx bitrate, min"
attr unit  bps
scalar MCProjectNetwork.host[18].wlan[0].radio 	bitrate:max 	2000000
attr interpolationmode  sample-hold
attr title  "tx bitrate, max"
attr unit  bps
scalar MCProjectNetwork.host[18].wlan[0].radio 	bitrate:timeavg 	2000000
attr interpolationmode  sample-hold
attr title  "tx bitrate, timeavg"
attr unit  bps
scalar MCProjectNetwork.host[19].networkLayer.arp 	initiatedARPResolution:count 	0
attr title  "ARP initiated resolutions, count"
scalar MCProjectNetwork.host[19].networkLayer.arp 	sentReply:count 	0
attr title  "ARP replies sent, count"
scalar MCProjectNetwork.host[19].networkLayer.arp 	sentReq:count 	0
attr title  "ARP request sent, count"
scalar MCProjectNetwork.host[19].networkLayer.arp 	failedARPResolution:count 	0
attr title  "ARP failed resolutions, count"
scalar MCProjectNetwork.host[19].networkLayer.arp 	completedARPResolution:count 	0
attr title  "ARP completed resolutions, count"
scalar MCProjectNetwork.host[19].lo0.lo 	rcvdPkFromHL:count 	0
attr interpolationmode  none
attr source  packetReceivedFromUpper
attr title  "packets received from higher layer, count"
scalar MCProjectNetwork.host[19].lo0.lo 	rcvdPkFromHL:sum(packetBytes) 	0
attr interpolationmode  none
attr source  packetReceivedFromUpper
attr title  "packets received from higher layer, sum(packetBytes)"
scalar MCProjectNetwork.host[19].lo0.lo 	passedUpPk:count 	0
attr interpolationmode  none
attr source  packetSentToUpper
attr title  "packets passed to higher layer, count"
scalar MCProjectNetwork.host[19].lo0.lo 	passedUpPk:sum(packetBytes) 	0
attr interpolationmode  none
attr source  packetSentToUpper
attr title  "packets passed to higher layer, sum(packetBytes)"
scalar MCProjectNetwork.host[19].lo0.lo 	droppedPkBitError:count 	0
attr interpolationmode  none
attr source  dropPkBitError
attr title  "packets dropped/bit error, count"
scalar MCProjectNetwork.host[19].lo0.lo 	droppedPkBitError:sum(packetBytes) 	0
attr interpolationmode  none
attr source  dropPkBitError
attr title  "packets dropped/bit error, sum(packetBytes)"
scalar MCProjectNetwork.host[19].wlan[0].mgmt 	dropPkByQueue:count 	0
attr interpolationmode  none
attr source  dropPkByQueue
attr title  "packets dropped by queue, count"
scalar MCProjectNetwork.host[19].wlan[0].mgmt 	dropPkByQueue:sum(packetBytes) 	0
attr interpolationmode  none
attr source  dropPkByQueue
attr title  "packets dropped by queue, sum(packetBytes)"
scalar MCProjectNetwork.host[19].wlan[0].mgmt 	dataQueueLen:max 	0
attr interpolationmode  sample-hold
attr title  "data queue length, max"
scalar MCProjectNetwork.host[19].wlan[0].mgmt 	dataQueueLen:timeavg 	0
attr interpolationmode  sample-hold
attr title  "data queue length, timeavg"
scalar MCProjectNetwork.host[19].wlan[0].mac 	"number of received packets" 	0
scalar MCProjectNetwork.host[19].wlan[0].mac 	"number of collisions" 	7
scalar MCProjectNetwork.host[19].wlan[0].mac 	"number of internal collisions" 	0
scalar MCProjectNetwork.host[19].wlan[0].mac 	"number of retry for AC 0" 	0
scalar MCProjectNetwork.host[19].wlan[0].mac 	"sent and received bits" 	1504
scalar MCProjectNetwork.host[19].wlan[0].mac 	"sent packet within AC 0" 	0
scalar MCProjectNetwork.host[19].wlan[0].mac 	"sent in TXOP " 	0
scalar MCProjectNetwork.host[19].wlan[0].mac 	"sentWithoutRetry AC 0" 	0
scalar MCProjectNetwork.host[19].wlan[0].mac 	"numGivenUp AC 0" 	0
scalar MCProjectNetwork.host[19].wlan[0].mac 	"numDropped AC 0" 	0
scalar MCProjectNetwork.host[19].wlan[0].mac 	rcvdPkFromHL:count 	3
attr interpolationmode  none
attr source  packetReceivedFromUpper
attr title  "packets received from higher layer, count"
scalar MCProjectNetwork.host[19].wlan[0].mac 	rcvdPkFromHL:sum(packetBytes) 	282
attr interpolationmode  none
attr source  packetReceivedFromUpper
attr title  "packets received from higher layer, sum(packetBytes)"
scalar MCProjectNetwork.host[19].wlan[0].mac 	passedUpPk:count 	6
attr interpolationmode  none
attr source  packetSentToUpper
attr title  "packets passed to higher layer, count"
scalar MCProjectNetwork.host[19].wlan[0].mac 	passedUpPk:sum(packetBytes) 	564
attr interpolationmode  none
attr source  packetSentToUpper
attr title  "packets passed to higher layer, sum(packetBytes)"
scalar MCProjectNetwork.host[19].wlan[0].mac 	rcvdPkFromLL:count 	13
attr interpolationmode  none
attr source  packetReceivedFromLower
attr title  "packets received from lower layer, count"
scalar MCProjectNetwork.host[19].wlan[0].mac 	rcvdPkFromLL:sum(packetBytes) 	1222
attr interpolationmode  none
attr source  packetReceivedFromLower
attr title  "packets received from lower layer, sum(packetBytes)"
scalar MCProjectNetwork.host[19].wlan[0].mac 	sentDownPk:count 	2
attr interpolationmode  none
attr source  packetSentToLower
attr title  "packets sent to lower layer, count"
scalar MCProjectNetwork.host[19].wlan[0].mac 	sentDownPk:sum(packetBytes) 	188
attr interpolationmode  none
attr source  packetSentToLower
attr title  "packets sent to lower layer, sum(packetBytes)"
scalar MCProjectNetwork.host[19].wlan[0].radio 	lossRate:min 	nan
attr interpolationmode  backward-sample-hold
attr title  "packet loss rate, min"
scalar MCProjectNetwork.host[19].wlan[0].radio 	lossRate:max 	nan
attr interpolationmode  backward-sample-hold
attr title  "packet loss rate, max"
scalar MCProjectNetwork.host[19].wlan[0].radio 	lossRate:timeavg 	nan
attr interpolationmode  backward-sample-hold
attr title  "packet loss rate, timeavg"
statistic MCProjectNetwork.host[19].wlan[0].radio 	channelNo:histogram
field count 1
field mean 0
field stddev nan
field sum 0
field sqrsum 0
field min 0
field max 0
attr interpolationmode  sample-hold
attr title  "channel no, histogram"
bin	-INF	0
bin	-0.5	0
bin	-0.46666666666667	0
bin	-0.43333333333333	0
bin	-0.4	0
bin	-0.36666666666667	0
bin	-0.33333333333333	0
bin	-0.3	0
bin	-0.26666666666667	0
bin	-0.23333333333333	0
bin	-0.2	0
bin	-0.16666666666667	0
bin	-0.13333333333333	0
bin	-0.1	0
bin	-0.066666666666667	0
bin	-0.033333333333333	0
bin	-6.9388939039072e-018	1
bin	0.033333333333333	0
bin	0.066666666666667	0
bin	0.1	0
bin	0.13333333333333	0
bin	0.16666666666667	0
bin	0.2	0
bin	0.23333333333333	0
bin	0.26666666666667	0
bin	0.3	0
bin	0.33333333333333	0
bin	0.36666666666667	0
bin	0.4	0
bin	0.43333333333333	0
bin	0.46666666666667	0
bin	0.5	0
scalar MCProjectNetwork.host[19].wlan[0].radio 	radioState:count 	43
attr interpolationmode  sample-hold
attr title  "radio state (enum), count"
scalar MCProjectNetwork.host[19].wlan[0].radio 	bitrate:min 	2000000
attr interpolationmode  sample-hold
attr title  "tx bitrate, min"
attr unit  bps
scalar MCProjectNetwork.host[19].wlan[0].radio 	bitrate:max 	2000000
attr interpolationmode  sample-hold
attr title  "tx bitrate, max"
attr unit  bps
scalar MCProjectNetwork.host[19].wlan[0].radio 	bitrate:timeavg 	2000000
attr interpolationmode  sample-hold
attr title  "tx bitrate, timeavg"
attr unit  bps
