version 2
run AODV-0-20160414-22:08:51-2492
attr configname AODV
attr datetime 20160414-22:08:51
attr experiment AODV
attr inifile omnetpp.ini
attr iterationvars ""
attr iterationvars2 $repetition=0
attr measurement ""
attr network MCProjectNetwork
attr processid 2492
attr repetition 0
attr replication #0
attr resultdir results
attr runnumber 0
attr seedset 0

scalar MCProjectNetwork 	hackForCreateResultsFolder 	0
scalar MCProjectNetwork.host[0].networkLayer.arp 	initiatedARPResolution:count 	0
attr title  "ARP initiated resolutions, count"
scalar MCProjectNetwork.host[0].networkLayer.arp 	sentReply:count 	1
attr title  "ARP replies sent, count"
scalar MCProjectNetwork.host[0].networkLayer.arp 	sentReq:count 	0
attr title  "ARP request sent, count"
scalar MCProjectNetwork.host[0].networkLayer.arp 	failedARPResolution:count 	0
attr title  "ARP failed resolutions, count"
scalar MCProjectNetwork.host[0].networkLayer.arp 	completedARPResolution:count 	1
attr title  "ARP completed resolutions, count"
scalar MCProjectNetwork.host[0].lo0.lo 	rcvdPkFromHL:count 	0
attr interpolationmode  none
attr source  packetReceivedFromUpper
attr title  "packets received from higher layer, count"
scalar MCProjectNetwork.host[0].lo0.lo 	rcvdPkFromHL:sum(packetBytes) 	0
attr interpolationmode  none
attr source  packetReceivedFromUpper
attr title  "packets received from higher layer, sum(packetBytes)"
scalar MCProjectNetwork.host[0].lo0.lo 	passedUpPk:count 	0
attr interpolationmode  none
attr source  packetSentToUpper
attr title  "packets passed to higher layer, count"
scalar MCProjectNetwork.host[0].lo0.lo 	passedUpPk:sum(packetBytes) 	0
attr interpolationmode  none
attr source  packetSentToUpper
attr title  "packets passed to higher layer, sum(packetBytes)"
scalar MCProjectNetwork.host[0].lo0.lo 	droppedPkBitError:count 	0
attr interpolationmode  none
attr source  dropPkBitError
attr title  "packets dropped/bit error, count"
scalar MCProjectNetwork.host[0].lo0.lo 	droppedPkBitError:sum(packetBytes) 	0
attr interpolationmode  none
attr source  dropPkBitError
attr title  "packets dropped/bit error, sum(packetBytes)"
scalar MCProjectNetwork.host[0].wlan[0].mgmt 	dropPkByQueue:count 	0
attr interpolationmode  none
attr source  dropPkByQueue
attr title  "packets dropped by queue, count"
scalar MCProjectNetwork.host[0].wlan[0].mgmt 	dropPkByQueue:sum(packetBytes) 	0
attr interpolationmode  none
attr source  dropPkByQueue
attr title  "packets dropped by queue, sum(packetBytes)"
scalar MCProjectNetwork.host[0].wlan[0].mgmt 	dataQueueLen:max 	0
attr interpolationmode  sample-hold
attr title  "data queue length, max"
scalar MCProjectNetwork.host[0].wlan[0].mgmt 	dataQueueLen:timeavg 	0
attr interpolationmode  sample-hold
attr title  "data queue length, timeavg"
scalar MCProjectNetwork.host[0].wlan[0].mac 	"number of received packets" 	2
scalar MCProjectNetwork.host[0].wlan[0].mac 	"number of collisions" 	4
scalar MCProjectNetwork.host[0].wlan[0].mac 	"number of internal collisions" 	0
scalar MCProjectNetwork.host[0].wlan[0].mac 	"number of retry for AC 0" 	4
scalar MCProjectNetwork.host[0].wlan[0].mac 	"sent and received bits" 	3760
scalar MCProjectNetwork.host[0].wlan[0].mac 	"sent packet within AC 0" 	2
scalar MCProjectNetwork.host[0].wlan[0].mac 	"sent in TXOP " 	0
scalar MCProjectNetwork.host[0].wlan[0].mac 	"sentWithoutRetry AC 0" 	1
scalar MCProjectNetwork.host[0].wlan[0].mac 	"numGivenUp AC 0" 	0
scalar MCProjectNetwork.host[0].wlan[0].mac 	"numDropped AC 0" 	0
scalar MCProjectNetwork.host[0].wlan[0].mac 	rcvdPkFromHL:count 	5
attr interpolationmode  none
attr source  packetReceivedFromUpper
attr title  "packets received from higher layer, count"
scalar MCProjectNetwork.host[0].wlan[0].mac 	rcvdPkFromHL:sum(packetBytes) 	470
attr interpolationmode  none
attr source  packetReceivedFromUpper
attr title  "packets received from higher layer, sum(packetBytes)"
scalar MCProjectNetwork.host[0].wlan[0].mac 	passedUpPk:count 	17
attr interpolationmode  none
attr source  packetSentToUpper
attr title  "packets passed to higher layer, count"
scalar MCProjectNetwork.host[0].wlan[0].mac 	passedUpPk:sum(packetBytes) 	1594
attr interpolationmode  none
attr source  packetSentToUpper
attr title  "packets passed to higher layer, sum(packetBytes)"
scalar MCProjectNetwork.host[0].wlan[0].mac 	rcvdPkFromLL:count 	28
attr interpolationmode  none
attr source  packetReceivedFromLower
attr title  "packets received from lower layer, count"
scalar MCProjectNetwork.host[0].wlan[0].mac 	rcvdPkFromLL:sum(packetBytes) 	2228
attr interpolationmode  none
attr source  packetReceivedFromLower
attr title  "packets received from lower layer, sum(packetBytes)"
scalar MCProjectNetwork.host[0].wlan[0].mac 	sentDownPk:count 	11
attr interpolationmode  none
attr source  packetSentToLower
attr title  "packets sent to lower layer, count"
scalar MCProjectNetwork.host[0].wlan[0].mac 	sentDownPk:sum(packetBytes) 	778
attr interpolationmode  none
attr source  packetSentToLower
attr title  "packets sent to lower layer, sum(packetBytes)"
scalar MCProjectNetwork.host[0].wlan[0].radio 	lossRate:min 	nan
attr interpolationmode  backward-sample-hold
attr title  "packet loss rate, min"
scalar MCProjectNetwork.host[0].wlan[0].radio 	lossRate:max 	nan
attr interpolationmode  backward-sample-hold
attr title  "packet loss rate, max"
scalar MCProjectNetwork.host[0].wlan[0].radio 	lossRate:timeavg 	nan
attr interpolationmode  backward-sample-hold
attr title  "packet loss rate, timeavg"
statistic MCProjectNetwork.host[0].wlan[0].radio 	channelNo:histogram
field count 1
field mean 0
field stddev nan
field sum 0
field sqrsum 0
field min 0
field max 0
attr interpolationmode  sample-hold
attr title  "channel no, histogram"
bin	-INF	0
bin	-0.5	0
bin	-0.46666666666667	0
bin	-0.43333333333333	0
bin	-0.4	0
bin	-0.36666666666667	0
bin	-0.33333333333333	0
bin	-0.3	0
bin	-0.26666666666667	0
bin	-0.23333333333333	0
bin	-0.2	0
bin	-0.16666666666667	0
bin	-0.13333333333333	0
bin	-0.1	0
bin	-0.066666666666667	0
bin	-0.033333333333333	0
bin	-6.9388939039072e-018	1
bin	0.033333333333333	0
bin	0.066666666666667	0
bin	0.1	0
bin	0.13333333333333	0
bin	0.16666666666667	0
bin	0.2	0
bin	0.23333333333333	0
bin	0.26666666666667	0
bin	0.3	0
bin	0.33333333333333	0
bin	0.36666666666667	0
bin	0.4	0
bin	0.43333333333333	0
bin	0.46666666666667	0
bin	0.5	0
scalar MCProjectNetwork.host[0].wlan[0].radio 	radioState:count 	80
attr interpolationmode  sample-hold
attr title  "radio state (enum), count"
scalar MCProjectNetwork.host[0].wlan[0].radio 	bitrate:min 	2000000
attr interpolationmode  sample-hold
attr title  "tx bitrate, min"
attr unit  bps
scalar MCProjectNetwork.host[0].wlan[0].radio 	bitrate:max 	2000000
attr interpolationmode  sample-hold
attr title  "tx bitrate, max"
attr unit  bps
scalar MCProjectNetwork.host[0].wlan[0].radio 	bitrate:timeavg 	2000000
attr interpolationmode  sample-hold
attr title  "tx bitrate, timeavg"
attr unit  bps
scalar MCProjectNetwork.host[0].pingApp[0] 	"Pings sent" 	2
scalar MCProjectNetwork.host[0].pingApp[0] 	"ping loss rate (%)" 	50
scalar MCProjectNetwork.host[0].pingApp[0] 	"ping out-of-order rate (%)" 	0
scalar MCProjectNetwork.host[0].pingApp[0] 	numOutOfOrderArrivals:last 	nan
attr interpolationmode  none
attr title  "ping out-of-order arrivals, last"
scalar MCProjectNetwork.host[0].pingApp[0] 	pingRxSeq:count 	1
attr interpolationmode  none
attr title  "ping rx seq, count"
scalar MCProjectNetwork.host[0].pingApp[0] 	pingTxSeq:count 	2
attr interpolationmode  none
attr title  "ping tx seq, count"
scalar MCProjectNetwork.host[0].pingApp[0] 	numLost:last 	nan
attr interpolationmode  none
attr title  "pings lost, last"
statistic MCProjectNetwork.host[0].pingApp[0] 	rtt:histogram
field count 1
field mean 1.022093385989
field stddev nan
field sum 1.022093385989
field sqrsum 1.0446748896825
field min 1.022093385989
field max 1.022093385989
attr interpolationmode  none
attr title  "ping round-trip time, histogram"
attr unit  s
bin	-INF	0
bin	0.522093385989	0
bin	0.55542671932233	0
bin	0.58876005265567	0
bin	0.622093385989	0
bin	0.65542671932233	0
bin	0.68876005265567	0
bin	0.722093385989	0
bin	0.75542671932233	0
bin	0.78876005265567	0
bin	0.822093385989	0
bin	0.85542671932233	0
bin	0.88876005265567	0
bin	0.922093385989	0
bin	0.95542671932233	0
bin	0.98876005265567	0
bin	1.022093385989	1
bin	1.0554267193223	0
bin	1.0887600526557	0
bin	1.122093385989	0
bin	1.1554267193223	0
bin	1.1887600526557	0
bin	1.222093385989	0
bin	1.2554267193223	0
bin	1.2887600526557	0
bin	1.322093385989	0
bin	1.3554267193223	0
bin	1.3887600526557	0
bin	1.422093385989	0
bin	1.4554267193223	0
bin	1.4887600526557	0
bin	1.522093385989	0
scalar MCProjectNetwork.host[0].manetrouting 	"simulated time" 	4.217357395206
scalar MCProjectNetwork.host[0].manetrouting 	"Aodv totalSend " 	50
scalar MCProjectNetwork.host[0].manetrouting 	"rreq send" 	45
scalar MCProjectNetwork.host[0].manetrouting 	"rreq rec" 	228
scalar MCProjectNetwork.host[0].manetrouting 	"rrep send" 	4
scalar MCProjectNetwork.host[0].manetrouting 	"rrep rec" 	3
scalar MCProjectNetwork.host[0].manetrouting 	"rrep ack send" 	0
scalar MCProjectNetwork.host[0].manetrouting 	"rrep ack rec" 	0
scalar MCProjectNetwork.host[0].manetrouting 	"rerr send" 	0
scalar MCProjectNetwork.host[0].manetrouting 	"rerr rec" 	0
scalar MCProjectNetwork.host[0].manetrouting 	"total repair" 	0
scalar MCProjectNetwork.host[1].networkLayer.arp 	initiatedARPResolution:count 	2
attr title  "ARP initiated resolutions, count"
scalar MCProjectNetwork.host[1].networkLayer.arp 	sentReply:count 	0
attr title  "ARP replies sent, count"
scalar MCProjectNetwork.host[1].networkLayer.arp 	sentReq:count 	3
attr title  "ARP request sent, count"
scalar MCProjectNetwork.host[1].networkLayer.arp 	failedARPResolution:count 	0
attr title  "ARP failed resolutions, count"
scalar MCProjectNetwork.host[1].networkLayer.arp 	completedARPResolution:count 	2
attr title  "ARP completed resolutions, count"
scalar MCProjectNetwork.host[1].lo0.lo 	rcvdPkFromHL:count 	0
attr interpolationmode  none
attr source  packetReceivedFromUpper
attr title  "packets received from higher layer, count"
scalar MCProjectNetwork.host[1].lo0.lo 	rcvdPkFromHL:sum(packetBytes) 	0
attr interpolationmode  none
attr source  packetReceivedFromUpper
attr title  "packets received from higher layer, sum(packetBytes)"
scalar MCProjectNetwork.host[1].lo0.lo 	passedUpPk:count 	0
attr interpolationmode  none
attr source  packetSentToUpper
attr title  "packets passed to higher layer, count"
scalar MCProjectNetwork.host[1].lo0.lo 	passedUpPk:sum(packetBytes) 	0
attr interpolationmode  none
attr source  packetSentToUpper
attr title  "packets passed to higher layer, sum(packetBytes)"
scalar MCProjectNetwork.host[1].lo0.lo 	droppedPkBitError:count 	0
attr interpolationmode  none
attr source  dropPkBitError
attr title  "packets dropped/bit error, count"
scalar MCProjectNetwork.host[1].lo0.lo 	droppedPkBitError:sum(packetBytes) 	0
attr interpolationmode  none
attr source  dropPkBitError
attr title  "packets dropped/bit error, sum(packetBytes)"
scalar MCProjectNetwork.host[1].wlan[0].mgmt 	dropPkByQueue:count 	0
attr interpolationmode  none
attr source  dropPkByQueue
attr title  "packets dropped by queue, count"
scalar MCProjectNetwork.host[1].wlan[0].mgmt 	dropPkByQueue:sum(packetBytes) 	0
attr interpolationmode  none
attr source  dropPkByQueue
attr title  "packets dropped by queue, sum(packetBytes)"
scalar MCProjectNetwork.host[1].wlan[0].mgmt 	dataQueueLen:max 	0
attr interpolationmode  sample-hold
attr title  "data queue length, max"
scalar MCProjectNetwork.host[1].wlan[0].mgmt 	dataQueueLen:timeavg 	0
attr interpolationmode  sample-hold
attr title  "data queue length, timeavg"
scalar MCProjectNetwork.host[1].wlan[0].mac 	"number of received packets" 	2
scalar MCProjectNetwork.host[1].wlan[0].mac 	"number of collisions" 	3
scalar MCProjectNetwork.host[1].wlan[0].mac 	"number of internal collisions" 	0
scalar MCProjectNetwork.host[1].wlan[0].mac 	"number of retry for AC 0" 	4
scalar MCProjectNetwork.host[1].wlan[0].mac 	"sent and received bits" 	4784
scalar MCProjectNetwork.host[1].wlan[0].mac 	"sent packet within AC 0" 	3
scalar MCProjectNetwork.host[1].wlan[0].mac 	"sent in TXOP " 	0
scalar MCProjectNetwork.host[1].wlan[0].mac 	"sentWithoutRetry AC 0" 	2
scalar MCProjectNetwork.host[1].wlan[0].mac 	"numGivenUp AC 0" 	0
scalar MCProjectNetwork.host[1].wlan[0].mac 	"numDropped AC 0" 	0
scalar MCProjectNetwork.host[1].wlan[0].mac 	rcvdPkFromHL:count 	7
attr interpolationmode  none
attr source  packetReceivedFromUpper
attr title  "packets received from higher layer, count"
scalar MCProjectNetwork.host[1].wlan[0].mac 	rcvdPkFromHL:sum(packetBytes) 	598
attr interpolationmode  none
attr source  packetReceivedFromUpper
attr title  "packets received from higher layer, sum(packetBytes)"
scalar MCProjectNetwork.host[1].wlan[0].mac 	passedUpPk:count 	13
attr interpolationmode  none
attr source  packetSentToUpper
attr title  "packets passed to higher layer, count"
scalar MCProjectNetwork.host[1].wlan[0].mac 	passedUpPk:sum(packetBytes) 	1198
attr interpolationmode  none
attr source  packetSentToUpper
attr title  "packets passed to higher layer, sum(packetBytes)"
scalar MCProjectNetwork.host[1].wlan[0].mac 	rcvdPkFromLL:count 	23
attr interpolationmode  none
attr source  packetReceivedFromLower
attr title  "packets received from lower layer, count"
scalar MCProjectNetwork.host[1].wlan[0].mac 	rcvdPkFromLL:sum(packetBytes) 	1758
attr interpolationmode  none
attr source  packetReceivedFromLower
attr title  "packets received from lower layer, sum(packetBytes)"
scalar MCProjectNetwork.host[1].wlan[0].mac 	sentDownPk:count 	13
attr interpolationmode  none
attr source  packetSentToLower
attr title  "packets sent to lower layer, count"
scalar MCProjectNetwork.host[1].wlan[0].mac 	sentDownPk:sum(packetBytes) 	986
attr interpolationmode  none
attr source  packetSentToLower
attr title  "packets sent to lower layer, sum(packetBytes)"
scalar MCProjectNetwork.host[1].wlan[0].radio 	lossRate:min 	nan
attr interpolationmode  backward-sample-hold
attr title  "packet loss rate, min"
scalar MCProjectNetwork.host[1].wlan[0].radio 	lossRate:max 	nan
attr interpolationmode  backward-sample-hold
attr title  "packet loss rate, max"
scalar MCProjectNetwork.host[1].wlan[0].radio 	lossRate:timeavg 	nan
attr interpolationmode  backward-sample-hold
attr title  "packet loss rate, timeavg"
statistic MCProjectNetwork.host[1].wlan[0].radio 	channelNo:histogram
field count 1
field mean 0
field stddev nan
field sum 0
field sqrsum 0
field min 0
field max 0
attr interpolationmode  sample-hold
attr title  "channel no, histogram"
bin	-INF	0
bin	-0.5	0
bin	-0.46666666666667	0
bin	-0.43333333333333	0
bin	-0.4	0
bin	-0.36666666666667	0
bin	-0.33333333333333	0
bin	-0.3	0
bin	-0.26666666666667	0
bin	-0.23333333333333	0
bin	-0.2	0
bin	-0.16666666666667	0
bin	-0.13333333333333	0
bin	-0.1	0
bin	-0.066666666666667	0
bin	-0.033333333333333	0
bin	-6.9388939039072e-018	1
bin	0.033333333333333	0
bin	0.066666666666667	0
bin	0.1	0
bin	0.13333333333333	0
bin	0.16666666666667	0
bin	0.2	0
bin	0.23333333333333	0
bin	0.26666666666667	0
bin	0.3	0
bin	0.33333333333333	0
bin	0.36666666666667	0
bin	0.4	0
bin	0.43333333333333	0
bin	0.46666666666667	0
bin	0.5	0
scalar MCProjectNetwork.host[1].wlan[0].radio 	radioState:count 	77
attr interpolationmode  sample-hold
attr title  "radio state (enum), count"
scalar MCProjectNetwork.host[1].wlan[0].radio 	bitrate:min 	2000000
attr interpolationmode  sample-hold
attr title  "tx bitrate, min"
attr unit  bps
scalar MCProjectNetwork.host[1].wlan[0].radio 	bitrate:max 	2000000
attr interpolationmode  sample-hold
attr title  "tx bitrate, max"
attr unit  bps
scalar MCProjectNetwork.host[1].wlan[0].radio 	bitrate:timeavg 	2000000
attr interpolationmode  sample-hold
attr title  "tx bitrate, timeavg"
attr unit  bps
scalar MCProjectNetwork.host[2].networkLayer.arp 	initiatedARPResolution:count 	0
attr title  "ARP initiated resolutions, count"
scalar MCProjectNetwork.host[2].networkLayer.arp 	sentReply:count 	0
attr title  "ARP replies sent, count"
scalar MCProjectNetwork.host[2].networkLayer.arp 	sentReq:count 	0
attr title  "ARP request sent, count"
scalar MCProjectNetwork.host[2].networkLayer.arp 	failedARPResolution:count 	0
attr title  "ARP failed resolutions, count"
scalar MCProjectNetwork.host[2].networkLayer.arp 	completedARPResolution:count 	0
attr title  "ARP completed resolutions, count"
scalar MCProjectNetwork.host[2].lo0.lo 	rcvdPkFromHL:count 	0
attr interpolationmode  none
attr source  packetReceivedFromUpper
attr title  "packets received from higher layer, count"
scalar MCProjectNetwork.host[2].lo0.lo 	rcvdPkFromHL:sum(packetBytes) 	0
attr interpolationmode  none
attr source  packetReceivedFromUpper
attr title  "packets received from higher layer, sum(packetBytes)"
scalar MCProjectNetwork.host[2].lo0.lo 	passedUpPk:count 	0
attr interpolationmode  none
attr source  packetSentToUpper
attr title  "packets passed to higher layer, count"
scalar MCProjectNetwork.host[2].lo0.lo 	passedUpPk:sum(packetBytes) 	0
attr interpolationmode  none
attr source  packetSentToUpper
attr title  "packets passed to higher layer, sum(packetBytes)"
scalar MCProjectNetwork.host[2].lo0.lo 	droppedPkBitError:count 	0
attr interpolationmode  none
attr source  dropPkBitError
attr title  "packets dropped/bit error, count"
scalar MCProjectNetwork.host[2].lo0.lo 	droppedPkBitError:sum(packetBytes) 	0
attr interpolationmode  none
attr source  dropPkBitError
attr title  "packets dropped/bit error, sum(packetBytes)"
scalar MCProjectNetwork.host[2].wlan[0].mgmt 	dropPkByQueue:count 	0
attr interpolationmode  none
attr source  dropPkByQueue
attr title  "packets dropped by queue, count"
scalar MCProjectNetwork.host[2].wlan[0].mgmt 	dropPkByQueue:sum(packetBytes) 	0
attr interpolationmode  none
attr source  dropPkByQueue
attr title  "packets dropped by queue, sum(packetBytes)"
scalar MCProjectNetwork.host[2].wlan[0].mgmt 	dataQueueLen:max 	0
attr interpolationmode  sample-hold
attr title  "data queue length, max"
scalar MCProjectNetwork.host[2].wlan[0].mgmt 	dataQueueLen:timeavg 	0
attr interpolationmode  sample-hold
attr title  "data queue length, timeavg"
scalar MCProjectNetwork.host[2].wlan[0].mac 	"number of received packets" 	0
scalar MCProjectNetwork.host[2].wlan[0].mac 	"number of collisions" 	5
scalar MCProjectNetwork.host[2].wlan[0].mac 	"number of internal collisions" 	0
scalar MCProjectNetwork.host[2].wlan[0].mac 	"number of retry for AC 0" 	0
scalar MCProjectNetwork.host[2].wlan[0].mac 	"sent and received bits" 	1504
scalar MCProjectNetwork.host[2].wlan[0].mac 	"sent packet within AC 0" 	0
scalar MCProjectNetwork.host[2].wlan[0].mac 	"sent in TXOP " 	0
scalar MCProjectNetwork.host[2].wlan[0].mac 	"sentWithoutRetry AC 0" 	0
scalar MCProjectNetwork.host[2].wlan[0].mac 	"numGivenUp AC 0" 	0
scalar MCProjectNetwork.host[2].wlan[0].mac 	"numDropped AC 0" 	0
scalar MCProjectNetwork.host[2].wlan[0].mac 	rcvdPkFromHL:count 	2
attr interpolationmode  none
attr source  packetReceivedFromUpper
attr title  "packets received from higher layer, count"
scalar MCProjectNetwork.host[2].wlan[0].mac 	rcvdPkFromHL:sum(packetBytes) 	188
attr interpolationmode  none
attr source  packetReceivedFromUpper
attr title  "packets received from higher layer, sum(packetBytes)"
scalar MCProjectNetwork.host[2].wlan[0].mac 	passedUpPk:count 	16
attr interpolationmode  none
attr source  packetSentToUpper
attr title  "packets passed to higher layer, count"
scalar MCProjectNetwork.host[2].wlan[0].mac 	passedUpPk:sum(packetBytes) 	1480
attr interpolationmode  none
attr source  packetSentToUpper
attr title  "packets passed to higher layer, sum(packetBytes)"
scalar MCProjectNetwork.host[2].wlan[0].mac 	rcvdPkFromLL:count 	30
attr interpolationmode  none
attr source  packetReceivedFromLower
attr title  "packets received from lower layer, count"
scalar MCProjectNetwork.host[2].wlan[0].mac 	rcvdPkFromLL:sum(packetBytes) 	2416
attr interpolationmode  none
attr source  packetReceivedFromLower
attr title  "packets received from lower layer, sum(packetBytes)"
scalar MCProjectNetwork.host[2].wlan[0].mac 	sentDownPk:count 	2
attr interpolationmode  none
attr source  packetSentToLower
attr title  "packets sent to lower layer, count"
scalar MCProjectNetwork.host[2].wlan[0].mac 	sentDownPk:sum(packetBytes) 	188
attr interpolationmode  none
attr source  packetSentToLower
attr title  "packets sent to lower layer, sum(packetBytes)"
scalar MCProjectNetwork.host[2].wlan[0].radio 	lossRate:min 	nan
attr interpolationmode  backward-sample-hold
attr title  "packet loss rate, min"
scalar MCProjectNetwork.host[2].wlan[0].radio 	lossRate:max 	nan
attr interpolationmode  backward-sample-hold
attr title  "packet loss rate, max"
scalar MCProjectNetwork.host[2].wlan[0].radio 	lossRate:timeavg 	nan
attr interpolationmode  backward-sample-hold
attr title  "packet loss rate, timeavg"
statistic MCProjectNetwork.host[2].wlan[0].radio 	channelNo:histogram
field count 1
field mean 0
field stddev nan
field sum 0
field sqrsum 0
field min 0
field max 0
attr interpolationmode  sample-hold
attr title  "channel no, histogram"
bin	-INF	0
bin	-0.5	0
bin	-0.46666666666667	0
bin	-0.43333333333333	0
bin	-0.4	0
bin	-0.36666666666667	0
bin	-0.33333333333333	0
bin	-0.3	0
bin	-0.26666666666667	0
bin	-0.23333333333333	0
bin	-0.2	0
bin	-0.16666666666667	0
bin	-0.13333333333333	0
bin	-0.1	0
bin	-0.066666666666667	0
bin	-0.033333333333333	0
bin	-6.9388939039072e-018	1
bin	0.033333333333333	0
bin	0.066666666666667	0
bin	0.1	0
bin	0.13333333333333	0
bin	0.16666666666667	0
bin	0.2	0
bin	0.23333333333333	0
bin	0.26666666666667	0
bin	0.3	0
bin	0.33333333333333	0
bin	0.36666666666667	0
bin	0.4	0
bin	0.43333333333333	0
bin	0.46666666666667	0
bin	0.5	0
scalar MCProjectNetwork.host[2].wlan[0].radio 	radioState:count 	67
attr interpolationmode  sample-hold
attr title  "radio state (enum), count"
scalar MCProjectNetwork.host[2].wlan[0].radio 	bitrate:min 	2000000
attr interpolationmode  sample-hold
attr title  "tx bitrate, min"
attr unit  bps
scalar MCProjectNetwork.host[2].wlan[0].radio 	bitrate:max 	2000000
attr interpolationmode  sample-hold
attr title  "tx bitrate, max"
attr unit  bps
scalar MCProjectNetwork.host[2].wlan[0].radio 	bitrate:timeavg 	2000000
attr interpolationmode  sample-hold
attr title  "tx bitrate, timeavg"
attr unit  bps
scalar MCProjectNetwork.host[3].networkLayer.arp 	initiatedARPResolution:count 	0
attr title  "ARP initiated resolutions, count"
scalar MCProjectNetwork.host[3].networkLayer.arp 	sentReply:count 	0
attr title  "ARP replies sent, count"
scalar MCProjectNetwork.host[3].networkLayer.arp 	sentReq:count 	0
attr title  "ARP request sent, count"
scalar MCProjectNetwork.host[3].networkLayer.arp 	failedARPResolution:count 	0
attr title  "ARP failed resolutions, count"
scalar MCProjectNetwork.host[3].networkLayer.arp 	completedARPResolution:count 	0
attr title  "ARP completed resolutions, count"
scalar MCProjectNetwork.host[3].lo0.lo 	rcvdPkFromHL:count 	0
attr interpolationmode  none
attr source  packetReceivedFromUpper
attr title  "packets received from higher layer, count"
scalar MCProjectNetwork.host[3].lo0.lo 	rcvdPkFromHL:sum(packetBytes) 	0
attr interpolationmode  none
attr source  packetReceivedFromUpper
attr title  "packets received from higher layer, sum(packetBytes)"
scalar MCProjectNetwork.host[3].lo0.lo 	passedUpPk:count 	0
attr interpolationmode  none
attr source  packetSentToUpper
attr title  "packets passed to higher layer, count"
scalar MCProjectNetwork.host[3].lo0.lo 	passedUpPk:sum(packetBytes) 	0
attr interpolationmode  none
attr source  packetSentToUpper
attr title  "packets passed to higher layer, sum(packetBytes)"
scalar MCProjectNetwork.host[3].lo0.lo 	droppedPkBitError:count 	0
attr interpolationmode  none
attr source  dropPkBitError
attr title  "packets dropped/bit error, count"
scalar MCProjectNetwork.host[3].lo0.lo 	droppedPkBitError:sum(packetBytes) 	0
attr interpolationmode  none
attr source  dropPkBitError
attr title  "packets dropped/bit error, sum(packetBytes)"
scalar MCProjectNetwork.host[3].wlan[0].mgmt 	dropPkByQueue:count 	0
attr interpolationmode  none
attr source  dropPkByQueue
attr title  "packets dropped by queue, count"
scalar MCProjectNetwork.host[3].wlan[0].mgmt 	dropPkByQueue:sum(packetBytes) 	0
attr interpolationmode  none
attr source  dropPkByQueue
attr title  "packets dropped by queue, sum(packetBytes)"
scalar MCProjectNetwork.host[3].wlan[0].mgmt 	dataQueueLen:max 	0
attr interpolationmode  sample-hold
attr title  "data queue length, max"
scalar MCProjectNetwork.host[3].wlan[0].mgmt 	dataQueueLen:timeavg 	0
attr interpolationmode  sample-hold
attr title  "data queue length, timeavg"
scalar MCProjectNetwork.host[3].wlan[0].mac 	"number of received packets" 	0
scalar MCProjectNetwork.host[3].wlan[0].mac 	"number of collisions" 	11
scalar MCProjectNetwork.host[3].wlan[0].mac 	"number of internal collisions" 	0
scalar MCProjectNetwork.host[3].wlan[0].mac 	"number of retry for AC 0" 	0
scalar MCProjectNetwork.host[3].wlan[0].mac 	"sent and received bits" 	2256
scalar MCProjectNetwork.host[3].wlan[0].mac 	"sent packet within AC 0" 	0
scalar MCProjectNetwork.host[3].wlan[0].mac 	"sent in TXOP " 	0
scalar MCProjectNetwork.host[3].wlan[0].mac 	"sentWithoutRetry AC 0" 	0
scalar MCProjectNetwork.host[3].wlan[0].mac 	"numGivenUp AC 0" 	0
scalar MCProjectNetwork.host[3].wlan[0].mac 	"numDropped AC 0" 	0
scalar MCProjectNetwork.host[3].wlan[0].mac 	rcvdPkFromHL:count 	3
attr interpolationmode  none
attr source  packetReceivedFromUpper
attr title  "packets received from higher layer, count"
scalar MCProjectNetwork.host[3].wlan[0].mac 	rcvdPkFromHL:sum(packetBytes) 	282
attr interpolationmode  none
attr source  packetReceivedFromUpper
attr title  "packets received from higher layer, sum(packetBytes)"
scalar MCProjectNetwork.host[3].wlan[0].mac 	passedUpPk:count 	20
attr interpolationmode  none
attr source  packetSentToUpper
attr title  "packets passed to higher layer, count"
scalar MCProjectNetwork.host[3].wlan[0].mac 	passedUpPk:sum(packetBytes) 	1856
attr interpolationmode  none
attr source  packetSentToUpper
attr title  "packets passed to higher layer, sum(packetBytes)"
scalar MCProjectNetwork.host[3].wlan[0].mac 	rcvdPkFromLL:count 	43
attr interpolationmode  none
attr source  packetReceivedFromLower
attr title  "packets received from lower layer, count"
scalar MCProjectNetwork.host[3].wlan[0].mac 	rcvdPkFromLL:sum(packetBytes) 	3462
attr interpolationmode  none
attr source  packetReceivedFromLower
attr title  "packets received from lower layer, sum(packetBytes)"
scalar MCProjectNetwork.host[3].wlan[0].mac 	sentDownPk:count 	3
attr interpolationmode  none
attr source  packetSentToLower
attr title  "packets sent to lower layer, count"
scalar MCProjectNetwork.host[3].wlan[0].mac 	sentDownPk:sum(packetBytes) 	282
attr interpolationmode  none
attr source  packetSentToLower
attr title  "packets sent to lower layer, sum(packetBytes)"
scalar MCProjectNetwork.host[3].wlan[0].radio 	lossRate:min 	nan
attr interpolationmode  backward-sample-hold
attr title  "packet loss rate, min"
scalar MCProjectNetwork.host[3].wlan[0].radio 	lossRate:max 	nan
attr interpolationmode  backward-sample-hold
attr title  "packet loss rate, max"
scalar MCProjectNetwork.host[3].wlan[0].radio 	lossRate:timeavg 	nan
attr interpolationmode  backward-sample-hold
attr title  "packet loss rate, timeavg"
statistic MCProjectNetwork.host[3].wlan[0].radio 	channelNo:histogram
field count 1
field mean 0
field stddev nan
field sum 0
field sqrsum 0
field min 0
field max 0
attr interpolationmode  sample-hold
attr title  "channel no, histogram"
bin	-INF	0
bin	-0.5	0
bin	-0.46666666666667	0
bin	-0.43333333333333	0
bin	-0.4	0
bin	-0.36666666666667	0
bin	-0.33333333333333	0
bin	-0.3	0
bin	-0.26666666666667	0
bin	-0.23333333333333	0
bin	-0.2	0
bin	-0.16666666666667	0
bin	-0.13333333333333	0
bin	-0.1	0
bin	-0.066666666666667	0
bin	-0.033333333333333	0
bin	-6.9388939039072e-018	1
bin	0.033333333333333	0
bin	0.066666666666667	0
bin	0.1	0
bin	0.13333333333333	0
bin	0.16666666666667	0
bin	0.2	0
bin	0.23333333333333	0
bin	0.26666666666667	0
bin	0.3	0
bin	0.33333333333333	0
bin	0.36666666666667	0
bin	0.4	0
bin	0.43333333333333	0
bin	0.46666666666667	0
bin	0.5	0
scalar MCProjectNetwork.host[3].wlan[0].radio 	radioState:count 	93
attr interpolationmode  sample-hold
attr title  "radio state (enum), count"
scalar MCProjectNetwork.host[3].wlan[0].radio 	bitrate:min 	2000000
attr interpolationmode  sample-hold
attr title  "tx bitrate, min"
attr unit  bps
scalar MCProjectNetwork.host[3].wlan[0].radio 	bitrate:max 	2000000
attr interpolationmode  sample-hold
attr title  "tx bitrate, max"
attr unit  bps
scalar MCProjectNetwork.host[3].wlan[0].radio 	bitrate:timeavg 	2000000
attr interpolationmode  sample-hold
attr title  "tx bitrate, timeavg"
attr unit  bps
scalar MCProjectNetwork.host[4].networkLayer.arp 	initiatedARPResolution:count 	0
attr title  "ARP initiated resolutions, count"
scalar MCProjectNetwork.host[4].networkLayer.arp 	sentReply:count 	0
attr title  "ARP replies sent, count"
scalar MCProjectNetwork.host[4].networkLayer.arp 	sentReq:count 	0
attr title  "ARP request sent, count"
scalar MCProjectNetwork.host[4].networkLayer.arp 	failedARPResolution:count 	0
attr title  "ARP failed resolutions, count"
scalar MCProjectNetwork.host[4].networkLayer.arp 	completedARPResolution:count 	0
attr title  "ARP completed resolutions, count"
scalar MCProjectNetwork.host[4].lo0.lo 	rcvdPkFromHL:count 	0
attr interpolationmode  none
attr source  packetReceivedFromUpper
attr title  "packets received from higher layer, count"
scalar MCProjectNetwork.host[4].lo0.lo 	rcvdPkFromHL:sum(packetBytes) 	0
attr interpolationmode  none
attr source  packetReceivedFromUpper
attr title  "packets received from higher layer, sum(packetBytes)"
scalar MCProjectNetwork.host[4].lo0.lo 	passedUpPk:count 	0
attr interpolationmode  none
attr source  packetSentToUpper
attr title  "packets passed to higher layer, count"
scalar MCProjectNetwork.host[4].lo0.lo 	passedUpPk:sum(packetBytes) 	0
attr interpolationmode  none
attr source  packetSentToUpper
attr title  "packets passed to higher layer, sum(packetBytes)"
scalar MCProjectNetwork.host[4].lo0.lo 	droppedPkBitError:count 	0
attr interpolationmode  none
attr source  dropPkBitError
attr title  "packets dropped/bit error, count"
scalar MCProjectNetwork.host[4].lo0.lo 	droppedPkBitError:sum(packetBytes) 	0
attr interpolationmode  none
attr source  dropPkBitError
attr title  "packets dropped/bit error, sum(packetBytes)"
scalar MCProjectNetwork.host[4].wlan[0].mgmt 	dropPkByQueue:count 	0
attr interpolationmode  none
attr source  dropPkByQueue
attr title  "packets dropped by queue, count"
scalar MCProjectNetwork.host[4].wlan[0].mgmt 	dropPkByQueue:sum(packetBytes) 	0
attr interpolationmode  none
attr source  dropPkByQueue
attr title  "packets dropped by queue, sum(packetBytes)"
scalar MCProjectNetwork.host[4].wlan[0].mgmt 	dataQueueLen:max 	0
attr interpolationmode  sample-hold
attr title  "data queue length, max"
scalar MCProjectNetwork.host[4].wlan[0].mgmt 	dataQueueLen:timeavg 	0
attr interpolationmode  sample-hold
attr title  "data queue length, timeavg"
scalar MCProjectNetwork.host[4].wlan[0].mac 	"number of received packets" 	0
scalar MCProjectNetwork.host[4].wlan[0].mac 	"number of collisions" 	1
scalar MCProjectNetwork.host[4].wlan[0].mac 	"number of internal collisions" 	0
scalar MCProjectNetwork.host[4].wlan[0].mac 	"number of retry for AC 0" 	0
scalar MCProjectNetwork.host[4].wlan[0].mac 	"sent and received bits" 	1504
scalar MCProjectNetwork.host[4].wlan[0].mac 	"sent packet within AC 0" 	0
scalar MCProjectNetwork.host[4].wlan[0].mac 	"sent in TXOP " 	0
scalar MCProjectNetwork.host[4].wlan[0].mac 	"sentWithoutRetry AC 0" 	0
scalar MCProjectNetwork.host[4].wlan[0].mac 	"numGivenUp AC 0" 	0
scalar MCProjectNetwork.host[4].wlan[0].mac 	"numDropped AC 0" 	0
scalar MCProjectNetwork.host[4].wlan[0].mac 	rcvdPkFromHL:count 	2
attr interpolationmode  none
attr source  packetReceivedFromUpper
attr title  "packets received from higher layer, count"
scalar MCProjectNetwork.host[4].wlan[0].mac 	rcvdPkFromHL:sum(packetBytes) 	188
attr interpolationmode  none
attr source  packetReceivedFromUpper
attr title  "packets received from higher layer, sum(packetBytes)"
scalar MCProjectNetwork.host[4].wlan[0].mac 	passedUpPk:count 	17
attr interpolationmode  none
attr source  packetSentToUpper
attr title  "packets passed to higher layer, count"
scalar MCProjectNetwork.host[4].wlan[0].mac 	passedUpPk:sum(packetBytes) 	1498
attr interpolationmode  none
attr source  packetSentToUpper
attr title  "packets passed to higher layer, sum(packetBytes)"
scalar MCProjectNetwork.host[4].wlan[0].mac 	rcvdPkFromLL:count 	36
attr interpolationmode  none
attr source  packetReceivedFromLower
attr title  "packets received from lower layer, count"
scalar MCProjectNetwork.host[4].wlan[0].mac 	rcvdPkFromLL:sum(packetBytes) 	2744
attr interpolationmode  none
attr source  packetReceivedFromLower
attr title  "packets received from lower layer, sum(packetBytes)"
scalar MCProjectNetwork.host[4].wlan[0].mac 	sentDownPk:count 	2
attr interpolationmode  none
attr source  packetSentToLower
attr title  "packets sent to lower layer, count"
scalar MCProjectNetwork.host[4].wlan[0].mac 	sentDownPk:sum(packetBytes) 	188
attr interpolationmode  none
attr source  packetSentToLower
attr title  "packets sent to lower layer, sum(packetBytes)"
scalar MCProjectNetwork.host[4].wlan[0].radio 	lossRate:min 	nan
attr interpolationmode  backward-sample-hold
attr title  "packet loss rate, min"
scalar MCProjectNetwork.host[4].wlan[0].radio 	lossRate:max 	nan
attr interpolationmode  backward-sample-hold
attr title  "packet loss rate, max"
scalar MCProjectNetwork.host[4].wlan[0].radio 	lossRate:timeavg 	nan
attr interpolationmode  backward-sample-hold
attr title  "packet loss rate, timeavg"
statistic MCProjectNetwork.host[4].wlan[0].radio 	channelNo:histogram
field count 1
field mean 0
field stddev nan
field sum 0
field sqrsum 0
field min 0
field max 0
attr interpolationmode  sample-hold
attr title  "channel no, histogram"
bin	-INF	0
bin	-0.5	0
bin	-0.46666666666667	0
bin	-0.43333333333333	0
bin	-0.4	0
bin	-0.36666666666667	0
bin	-0.33333333333333	0
bin	-0.3	0
bin	-0.26666666666667	0
bin	-0.23333333333333	0
bin	-0.2	0
bin	-0.16666666666667	0
bin	-0.13333333333333	0
bin	-0.1	0
bin	-0.066666666666667	0
bin	-0.033333333333333	0
bin	-6.9388939039072e-018	1
bin	0.033333333333333	0
bin	0.066666666666667	0
bin	0.1	0
bin	0.13333333333333	0
bin	0.16666666666667	0
bin	0.2	0
bin	0.23333333333333	0
bin	0.26666666666667	0
bin	0.3	0
bin	0.33333333333333	0
bin	0.36666666666667	0
bin	0.4	0
bin	0.43333333333333	0
bin	0.46666666666667	0
bin	0.5	0
scalar MCProjectNetwork.host[4].wlan[0].radio 	radioState:count 	79
attr interpolationmode  sample-hold
attr title  "radio state (enum), count"
scalar MCProjectNetwork.host[4].wlan[0].radio 	bitrate:min 	2000000
attr interpolationmode  sample-hold
attr title  "tx bitrate, min"
attr unit  bps
scalar MCProjectNetwork.host[4].wlan[0].radio 	bitrate:max 	2000000
attr interpolationmode  sample-hold
attr title  "tx bitrate, max"
attr unit  bps
scalar MCProjectNetwork.host[4].wlan[0].radio 	bitrate:timeavg 	2000000
attr interpolationmode  sample-hold
attr title  "tx bitrate, timeavg"
attr unit  bps
scalar MCProjectNetwork.host[5].networkLayer.arp 	initiatedARPResolution:count 	0
attr title  "ARP initiated resolutions, count"
scalar MCProjectNetwork.host[5].networkLayer.arp 	sentReply:count 	0
attr title  "ARP replies sent, count"
scalar MCProjectNetwork.host[5].networkLayer.arp 	sentReq:count 	0
attr title  "ARP request sent, count"
scalar MCProjectNetwork.host[5].networkLayer.arp 	failedARPResolution:count 	0
attr title  "ARP failed resolutions, count"
scalar MCProjectNetwork.host[5].networkLayer.arp 	completedARPResolution:count 	0
attr title  "ARP completed resolutions, count"
scalar MCProjectNetwork.host[5].lo0.lo 	rcvdPkFromHL:count 	0
attr interpolationmode  none
attr source  packetReceivedFromUpper
attr title  "packets received from higher layer, count"
scalar MCProjectNetwork.host[5].lo0.lo 	rcvdPkFromHL:sum(packetBytes) 	0
attr interpolationmode  none
attr source  packetReceivedFromUpper
attr title  "packets received from higher layer, sum(packetBytes)"
scalar MCProjectNetwork.host[5].lo0.lo 	passedUpPk:count 	0
attr interpolationmode  none
attr source  packetSentToUpper
attr title  "packets passed to higher layer, count"
scalar MCProjectNetwork.host[5].lo0.lo 	passedUpPk:sum(packetBytes) 	0
attr interpolationmode  none
attr source  packetSentToUpper
attr title  "packets passed to higher layer, sum(packetBytes)"
scalar MCProjectNetwork.host[5].lo0.lo 	droppedPkBitError:count 	0
attr interpolationmode  none
attr source  dropPkBitError
attr title  "packets dropped/bit error, count"
scalar MCProjectNetwork.host[5].lo0.lo 	droppedPkBitError:sum(packetBytes) 	0
attr interpolationmode  none
attr source  dropPkBitError
attr title  "packets dropped/bit error, sum(packetBytes)"
scalar MCProjectNetwork.host[5].wlan[0].mgmt 	dropPkByQueue:count 	0
attr interpolationmode  none
attr source  dropPkByQueue
attr title  "packets dropped by queue, count"
scalar MCProjectNetwork.host[5].wlan[0].mgmt 	dropPkByQueue:sum(packetBytes) 	0
attr interpolationmode  none
attr source  dropPkByQueue
attr title  "packets dropped by queue, sum(packetBytes)"
scalar MCProjectNetwork.host[5].wlan[0].mgmt 	dataQueueLen:max 	0
attr interpolationmode  sample-hold
attr title  "data queue length, max"
scalar MCProjectNetwork.host[5].wlan[0].mgmt 	dataQueueLen:timeavg 	0
attr interpolationmode  sample-hold
attr title  "data queue length, timeavg"
scalar MCProjectNetwork.host[5].wlan[0].mac 	"number of received packets" 	0
scalar MCProjectNetwork.host[5].wlan[0].mac 	"number of collisions" 	1
scalar MCProjectNetwork.host[5].wlan[0].mac 	"number of internal collisions" 	0
scalar MCProjectNetwork.host[5].wlan[0].mac 	"number of retry for AC 0" 	0
scalar MCProjectNetwork.host[5].wlan[0].mac 	"sent and received bits" 	1504
scalar MCProjectNetwork.host[5].wlan[0].mac 	"sent packet within AC 0" 	0
scalar MCProjectNetwork.host[5].wlan[0].mac 	"sent in TXOP " 	0
scalar MCProjectNetwork.host[5].wlan[0].mac 	"sentWithoutRetry AC 0" 	0
scalar MCProjectNetwork.host[5].wlan[0].mac 	"numGivenUp AC 0" 	0
scalar MCProjectNetwork.host[5].wlan[0].mac 	"numDropped AC 0" 	0
scalar MCProjectNetwork.host[5].wlan[0].mac 	rcvdPkFromHL:count 	2
attr interpolationmode  none
attr source  packetReceivedFromUpper
attr title  "packets received from higher layer, count"
scalar MCProjectNetwork.host[5].wlan[0].mac 	rcvdPkFromHL:sum(packetBytes) 	188
attr interpolationmode  none
attr source  packetReceivedFromUpper
attr title  "packets received from higher layer, sum(packetBytes)"
scalar MCProjectNetwork.host[5].wlan[0].mac 	passedUpPk:count 	10
attr interpolationmode  none
attr source  packetSentToUpper
attr title  "packets passed to higher layer, count"
scalar MCProjectNetwork.host[5].wlan[0].mac 	passedUpPk:sum(packetBytes) 	940
attr interpolationmode  none
attr source  packetSentToUpper
attr title  "packets passed to higher layer, sum(packetBytes)"
scalar MCProjectNetwork.host[5].wlan[0].mac 	rcvdPkFromLL:count 	11
attr interpolationmode  none
attr source  packetReceivedFromLower
attr title  "packets received from lower layer, count"
scalar MCProjectNetwork.host[5].wlan[0].mac 	rcvdPkFromLL:sum(packetBytes) 	1034
attr interpolationmode  none
attr source  packetReceivedFromLower
attr title  "packets received from lower layer, sum(packetBytes)"
scalar MCProjectNetwork.host[5].wlan[0].mac 	sentDownPk:count 	2
attr interpolationmode  none
attr source  packetSentToLower
attr title  "packets sent to lower layer, count"
scalar MCProjectNetwork.host[5].wlan[0].mac 	sentDownPk:sum(packetBytes) 	188
attr interpolationmode  none
attr source  packetSentToLower
attr title  "packets sent to lower layer, sum(packetBytes)"
scalar MCProjectNetwork.host[5].wlan[0].radio 	lossRate:min 	nan
attr interpolationmode  backward-sample-hold
attr title  "packet loss rate, min"
scalar MCProjectNetwork.host[5].wlan[0].radio 	lossRate:max 	nan
attr interpolationmode  backward-sample-hold
attr title  "packet loss rate, max"
scalar MCProjectNetwork.host[5].wlan[0].radio 	lossRate:timeavg 	nan
attr interpolationmode  backward-sample-hold
attr title  "packet loss rate, timeavg"
statistic MCProjectNetwork.host[5].wlan[0].radio 	channelNo:histogram
field count 1
field mean 0
field stddev nan
field sum 0
field sqrsum 0
field min 0
field max 0
attr interpolationmode  sample-hold
attr title  "channel no, histogram"
bin	-INF	0
bin	-0.5	0
bin	-0.46666666666667	0
bin	-0.43333333333333	0
bin	-0.4	0
bin	-0.36666666666667	0
bin	-0.33333333333333	0
bin	-0.3	0
bin	-0.26666666666667	0
bin	-0.23333333333333	0
bin	-0.2	0
bin	-0.16666666666667	0
bin	-0.13333333333333	0
bin	-0.1	0
bin	-0.066666666666667	0
bin	-0.033333333333333	0
bin	-6.9388939039072e-018	1
bin	0.033333333333333	0
bin	0.066666666666667	0
bin	0.1	0
bin	0.13333333333333	0
bin	0.16666666666667	0
bin	0.2	0
bin	0.23333333333333	0
bin	0.26666666666667	0
bin	0.3	0
bin	0.33333333333333	0
bin	0.36666666666667	0
bin	0.4	0
bin	0.43333333333333	0
bin	0.46666666666667	0
bin	0.5	0
scalar MCProjectNetwork.host[5].wlan[0].radio 	radioState:count 	41
attr interpolationmode  sample-hold
attr title  "radio state (enum), count"
scalar MCProjectNetwork.host[5].wlan[0].radio 	bitrate:min 	2000000
attr interpolationmode  sample-hold
attr title  "tx bitrate, min"
attr unit  bps
scalar MCProjectNetwork.host[5].wlan[0].radio 	bitrate:max 	2000000
attr interpolationmode  sample-hold
attr title  "tx bitrate, max"
attr unit  bps
scalar MCProjectNetwork.host[5].wlan[0].radio 	bitrate:timeavg 	2000000
attr interpolationmode  sample-hold
attr title  "tx bitrate, timeavg"
attr unit  bps
scalar MCProjectNetwork.host[6].networkLayer.arp 	initiatedARPResolution:count 	0
attr title  "ARP initiated resolutions, count"
scalar MCProjectNetwork.host[6].networkLayer.arp 	sentReply:count 	0
attr title  "ARP replies sent, count"
scalar MCProjectNetwork.host[6].networkLayer.arp 	sentReq:count 	0
attr title  "ARP request sent, count"
scalar MCProjectNetwork.host[6].networkLayer.arp 	failedARPResolution:count 	0
attr title  "ARP failed resolutions, count"
scalar MCProjectNetwork.host[6].networkLayer.arp 	completedARPResolution:count 	0
attr title  "ARP completed resolutions, count"
scalar MCProjectNetwork.host[6].lo0.lo 	rcvdPkFromHL:count 	0
attr interpolationmode  none
attr source  packetReceivedFromUpper
attr title  "packets received from higher layer, count"
scalar MCProjectNetwork.host[6].lo0.lo 	rcvdPkFromHL:sum(packetBytes) 	0
attr interpolationmode  none
attr source  packetReceivedFromUpper
attr title  "packets received from higher layer, sum(packetBytes)"
scalar MCProjectNetwork.host[6].lo0.lo 	passedUpPk:count 	0
attr interpolationmode  none
attr source  packetSentToUpper
attr title  "packets passed to higher layer, count"
scalar MCProjectNetwork.host[6].lo0.lo 	passedUpPk:sum(packetBytes) 	0
attr interpolationmode  none
attr source  packetSentToUpper
attr title  "packets passed to higher layer, sum(packetBytes)"
scalar MCProjectNetwork.host[6].lo0.lo 	droppedPkBitError:count 	0
attr interpolationmode  none
attr source  dropPkBitError
attr title  "packets dropped/bit error, count"
scalar MCProjectNetwork.host[6].lo0.lo 	droppedPkBitError:sum(packetBytes) 	0
attr interpolationmode  none
attr source  dropPkBitError
attr title  "packets dropped/bit error, sum(packetBytes)"
scalar MCProjectNetwork.host[6].wlan[0].mgmt 	dropPkByQueue:count 	0
attr interpolationmode  none
attr source  dropPkByQueue
attr title  "packets dropped by queue, count"
scalar MCProjectNetwork.host[6].wlan[0].mgmt 	dropPkByQueue:sum(packetBytes) 	0
attr interpolationmode  none
attr source  dropPkByQueue
attr title  "packets dropped by queue, sum(packetBytes)"
scalar MCProjectNetwork.host[6].wlan[0].mgmt 	dataQueueLen:max 	0
attr interpolationmode  sample-hold
attr title  "data queue length, max"
scalar MCProjectNetwork.host[6].wlan[0].mgmt 	dataQueueLen:timeavg 	0
attr interpolationmode  sample-hold
attr title  "data queue length, timeavg"
scalar MCProjectNetwork.host[6].wlan[0].mac 	"number of received packets" 	0
scalar MCProjectNetwork.host[6].wlan[0].mac 	"number of collisions" 	8
scalar MCProjectNetwork.host[6].wlan[0].mac 	"number of internal collisions" 	0
scalar MCProjectNetwork.host[6].wlan[0].mac 	"number of retry for AC 0" 	0
scalar MCProjectNetwork.host[6].wlan[0].mac 	"sent and received bits" 	1504
scalar MCProjectNetwork.host[6].wlan[0].mac 	"sent packet within AC 0" 	0
scalar MCProjectNetwork.host[6].wlan[0].mac 	"sent in TXOP " 	0
scalar MCProjectNetwork.host[6].wlan[0].mac 	"sentWithoutRetry AC 0" 	0
scalar MCProjectNetwork.host[6].wlan[0].mac 	"numGivenUp AC 0" 	0
scalar MCProjectNetwork.host[6].wlan[0].mac 	"numDropped AC 0" 	0
scalar MCProjectNetwork.host[6].wlan[0].mac 	rcvdPkFromHL:count 	2
attr interpolationmode  none
attr source  packetReceivedFromUpper
attr title  "packets received from higher layer, count"
scalar MCProjectNetwork.host[6].wlan[0].mac 	rcvdPkFromHL:sum(packetBytes) 	188
attr interpolationmode  none
attr source  packetReceivedFromUpper
attr title  "packets received from higher layer, sum(packetBytes)"
scalar MCProjectNetwork.host[6].wlan[0].mac 	passedUpPk:count 	15
attr interpolationmode  none
attr source  packetSentToUpper
attr title  "packets passed to higher layer, count"
scalar MCProjectNetwork.host[6].wlan[0].mac 	passedUpPk:sum(packetBytes) 	1358
attr interpolationmode  none
attr source  packetSentToUpper
attr title  "packets passed to higher layer, sum(packetBytes)"
scalar MCProjectNetwork.host[6].wlan[0].mac 	rcvdPkFromLL:count 	37
attr interpolationmode  none
attr source  packetReceivedFromLower
attr title  "packets received from lower layer, count"
scalar MCProjectNetwork.host[6].wlan[0].mac 	rcvdPkFromLL:sum(packetBytes) 	2838
attr interpolationmode  none
attr source  packetReceivedFromLower
attr title  "packets received from lower layer, sum(packetBytes)"
scalar MCProjectNetwork.host[6].wlan[0].mac 	sentDownPk:count 	2
attr interpolationmode  none
attr source  packetSentToLower
attr title  "packets sent to lower layer, count"
scalar MCProjectNetwork.host[6].wlan[0].mac 	sentDownPk:sum(packetBytes) 	188
attr interpolationmode  none
attr source  packetSentToLower
attr title  "packets sent to lower layer, sum(packetBytes)"
scalar MCProjectNetwork.host[6].wlan[0].radio 	lossRate:min 	nan
attr interpolationmode  backward-sample-hold
attr title  "packet loss rate, min"
scalar MCProjectNetwork.host[6].wlan[0].radio 	lossRate:max 	nan
attr interpolationmode  backward-sample-hold
attr title  "packet loss rate, max"
scalar MCProjectNetwork.host[6].wlan[0].radio 	lossRate:timeavg 	nan
attr interpolationmode  backward-sample-hold
attr title  "packet loss rate, timeavg"
statistic MCProjectNetwork.host[6].wlan[0].radio 	channelNo:histogram
field count 1
field mean 0
field stddev nan
field sum 0
field sqrsum 0
field min 0
field max 0
attr interpolationmode  sample-hold
attr title  "channel no, histogram"
bin	-INF	0
bin	-0.5	0
bin	-0.46666666666667	0
bin	-0.43333333333333	0
bin	-0.4	0
bin	-0.36666666666667	0
bin	-0.33333333333333	0
bin	-0.3	0
bin	-0.26666666666667	0
bin	-0.23333333333333	0
bin	-0.2	0
bin	-0.16666666666667	0
bin	-0.13333333333333	0
bin	-0.1	0
bin	-0.066666666666667	0
bin	-0.033333333333333	0
bin	-6.9388939039072e-018	1
bin	0.033333333333333	0
bin	0.066666666666667	0
bin	0.1	0
bin	0.13333333333333	0
bin	0.16666666666667	0
bin	0.2	0
bin	0.23333333333333	0
bin	0.26666666666667	0
bin	0.3	0
bin	0.33333333333333	0
bin	0.36666666666667	0
bin	0.4	0
bin	0.43333333333333	0
bin	0.46666666666667	0
bin	0.5	0
scalar MCProjectNetwork.host[6].wlan[0].radio 	radioState:count 	81
attr interpolationmode  sample-hold
attr title  "radio state (enum), count"
scalar MCProjectNetwork.host[6].wlan[0].radio 	bitrate:min 	2000000
attr interpolationmode  sample-hold
attr title  "tx bitrate, min"
attr unit  bps
scalar MCProjectNetwork.host[6].wlan[0].radio 	bitrate:max 	2000000
attr interpolationmode  sample-hold
attr title  "tx bitrate, max"
attr unit  bps
scalar MCProjectNetwork.host[6].wlan[0].radio 	bitrate:timeavg 	2000000
attr interpolationmode  sample-hold
attr title  "tx bitrate, timeavg"
attr unit  bps
scalar MCProjectNetwork.host[7].networkLayer.arp 	initiatedARPResolution:count 	0
attr title  "ARP initiated resolutions, count"
scalar MCProjectNetwork.host[7].networkLayer.arp 	sentReply:count 	0
attr title  "ARP replies sent, count"
scalar MCProjectNetwork.host[7].networkLayer.arp 	sentReq:count 	0
attr title  "ARP request sent, count"
scalar MCProjectNetwork.host[7].networkLayer.arp 	failedARPResolution:count 	0
attr title  "ARP failed resolutions, count"
scalar MCProjectNetwork.host[7].networkLayer.arp 	completedARPResolution:count 	0
attr title  "ARP completed resolutions, count"
scalar MCProjectNetwork.host[7].lo0.lo 	rcvdPkFromHL:count 	0
attr interpolationmode  none
attr source  packetReceivedFromUpper
attr title  "packets received from higher layer, count"
scalar MCProjectNetwork.host[7].lo0.lo 	rcvdPkFromHL:sum(packetBytes) 	0
attr interpolationmode  none
attr source  packetReceivedFromUpper
attr title  "packets received from higher layer, sum(packetBytes)"
scalar MCProjectNetwork.host[7].lo0.lo 	passedUpPk:count 	0
attr interpolationmode  none
attr source  packetSentToUpper
attr title  "packets passed to higher layer, count"
scalar MCProjectNetwork.host[7].lo0.lo 	passedUpPk:sum(packetBytes) 	0
attr interpolationmode  none
attr source  packetSentToUpper
attr title  "packets passed to higher layer, sum(packetBytes)"
scalar MCProjectNetwork.host[7].lo0.lo 	droppedPkBitError:count 	0
attr interpolationmode  none
attr source  dropPkBitError
attr title  "packets dropped/bit error, count"
scalar MCProjectNetwork.host[7].lo0.lo 	droppedPkBitError:sum(packetBytes) 	0
attr interpolationmode  none
attr source  dropPkBitError
attr title  "packets dropped/bit error, sum(packetBytes)"
scalar MCProjectNetwork.host[7].wlan[0].mgmt 	dropPkByQueue:count 	0
attr interpolationmode  none
attr source  dropPkByQueue
attr title  "packets dropped by queue, count"
scalar MCProjectNetwork.host[7].wlan[0].mgmt 	dropPkByQueue:sum(packetBytes) 	0
attr interpolationmode  none
attr source  dropPkByQueue
attr title  "packets dropped by queue, sum(packetBytes)"
scalar MCProjectNetwork.host[7].wlan[0].mgmt 	dataQueueLen:max 	0
attr interpolationmode  sample-hold
attr title  "data queue length, max"
scalar MCProjectNetwork.host[7].wlan[0].mgmt 	dataQueueLen:timeavg 	0
attr interpolationmode  sample-hold
attr title  "data queue length, timeavg"
scalar MCProjectNetwork.host[7].wlan[0].mac 	"number of received packets" 	0
scalar MCProjectNetwork.host[7].wlan[0].mac 	"number of collisions" 	4
scalar MCProjectNetwork.host[7].wlan[0].mac 	"number of internal collisions" 	0
scalar MCProjectNetwork.host[7].wlan[0].mac 	"number of retry for AC 0" 	0
scalar MCProjectNetwork.host[7].wlan[0].mac 	"sent and received bits" 	1504
scalar MCProjectNetwork.host[7].wlan[0].mac 	"sent packet within AC 0" 	0
scalar MCProjectNetwork.host[7].wlan[0].mac 	"sent in TXOP " 	0
scalar MCProjectNetwork.host[7].wlan[0].mac 	"sentWithoutRetry AC 0" 	0
scalar MCProjectNetwork.host[7].wlan[0].mac 	"numGivenUp AC 0" 	0
scalar MCProjectNetwork.host[7].wlan[0].mac 	"numDropped AC 0" 	0
scalar MCProjectNetwork.host[7].wlan[0].mac 	rcvdPkFromHL:count 	2
attr interpolationmode  none
attr source  packetReceivedFromUpper
attr title  "packets received from higher layer, count"
scalar MCProjectNetwork.host[7].wlan[0].mac 	rcvdPkFromHL:sum(packetBytes) 	188
attr interpolationmode  none
attr source  packetReceivedFromUpper
attr title  "packets received from higher layer, sum(packetBytes)"
scalar MCProjectNetwork.host[7].wlan[0].mac 	passedUpPk:count 	19
attr interpolationmode  none
attr source  packetSentToUpper
attr title  "packets passed to higher layer, count"
scalar MCProjectNetwork.host[7].wlan[0].mac 	passedUpPk:sum(packetBytes) 	1686
attr interpolationmode  none
attr source  packetSentToUpper
attr title  "packets passed to higher layer, sum(packetBytes)"
scalar MCProjectNetwork.host[7].wlan[0].mac 	rcvdPkFromLL:count 	38
attr interpolationmode  none
attr source  packetReceivedFromLower
attr title  "packets received from lower layer, count"
scalar MCProjectNetwork.host[7].wlan[0].mac 	rcvdPkFromLL:sum(packetBytes) 	2932
attr interpolationmode  none
attr source  packetReceivedFromLower
attr title  "packets received from lower layer, sum(packetBytes)"
scalar MCProjectNetwork.host[7].wlan[0].mac 	sentDownPk:count 	2
attr interpolationmode  none
attr source  packetSentToLower
attr title  "packets sent to lower layer, count"
scalar MCProjectNetwork.host[7].wlan[0].mac 	sentDownPk:sum(packetBytes) 	188
attr interpolationmode  none
attr source  packetSentToLower
attr title  "packets sent to lower layer, sum(packetBytes)"
scalar MCProjectNetwork.host[7].wlan[0].radio 	lossRate:min 	nan
attr interpolationmode  backward-sample-hold
attr title  "packet loss rate, min"
scalar MCProjectNetwork.host[7].wlan[0].radio 	lossRate:max 	nan
attr interpolationmode  backward-sample-hold
attr title  "packet loss rate, max"
scalar MCProjectNetwork.host[7].wlan[0].radio 	lossRate:timeavg 	nan
attr interpolationmode  backward-sample-hold
attr title  "packet loss rate, timeavg"
statistic MCProjectNetwork.host[7].wlan[0].radio 	channelNo:histogram
field count 1
field mean 0
field stddev nan
field sum 0
field sqrsum 0
field min 0
field max 0
attr interpolationmode  sample-hold
attr title  "channel no, histogram"
bin	-INF	0
bin	-0.5	0
bin	-0.46666666666667	0
bin	-0.43333333333333	0
bin	-0.4	0
bin	-0.36666666666667	0
bin	-0.33333333333333	0
bin	-0.3	0
bin	-0.26666666666667	0
bin	-0.23333333333333	0
bin	-0.2	0
bin	-0.16666666666667	0
bin	-0.13333333333333	0
bin	-0.1	0
bin	-0.066666666666667	0
bin	-0.033333333333333	0
bin	-6.9388939039072e-018	1
bin	0.033333333333333	0
bin	0.066666666666667	0
bin	0.1	0
bin	0.13333333333333	0
bin	0.16666666666667	0
bin	0.2	0
bin	0.23333333333333	0
bin	0.26666666666667	0
bin	0.3	0
bin	0.33333333333333	0
bin	0.36666666666667	0
bin	0.4	0
bin	0.43333333333333	0
bin	0.46666666666667	0
bin	0.5	0
scalar MCProjectNetwork.host[7].wlan[0].radio 	radioState:count 	81
attr interpolationmode  sample-hold
attr title  "radio state (enum), count"
scalar MCProjectNetwork.host[7].wlan[0].radio 	bitrate:min 	2000000
attr interpolationmode  sample-hold
attr title  "tx bitrate, min"
attr unit  bps
scalar MCProjectNetwork.host[7].wlan[0].radio 	bitrate:max 	2000000
attr interpolationmode  sample-hold
attr title  "tx bitrate, max"
attr unit  bps
scalar MCProjectNetwork.host[7].wlan[0].radio 	bitrate:timeavg 	2000000
attr interpolationmode  sample-hold
attr title  "tx bitrate, timeavg"
attr unit  bps
scalar MCProjectNetwork.host[8].networkLayer.arp 	initiatedARPResolution:count 	0
attr title  "ARP initiated resolutions, count"
scalar MCProjectNetwork.host[8].networkLayer.arp 	sentReply:count 	0
attr title  "ARP replies sent, count"
scalar MCProjectNetwork.host[8].networkLayer.arp 	sentReq:count 	0
attr title  "ARP request sent, count"
scalar MCProjectNetwork.host[8].networkLayer.arp 	failedARPResolution:count 	0
attr title  "ARP failed resolutions, count"
scalar MCProjectNetwork.host[8].networkLayer.arp 	completedARPResolution:count 	0
attr title  "ARP completed resolutions, count"
scalar MCProjectNetwork.host[8].lo0.lo 	rcvdPkFromHL:count 	0
attr interpolationmode  none
attr source  packetReceivedFromUpper
attr title  "packets received from higher layer, count"
scalar MCProjectNetwork.host[8].lo0.lo 	rcvdPkFromHL:sum(packetBytes) 	0
attr interpolationmode  none
attr source  packetReceivedFromUpper
attr title  "packets received from higher layer, sum(packetBytes)"
scalar MCProjectNetwork.host[8].lo0.lo 	passedUpPk:count 	0
attr interpolationmode  none
attr source  packetSentToUpper
attr title  "packets passed to higher layer, count"
scalar MCProjectNetwork.host[8].lo0.lo 	passedUpPk:sum(packetBytes) 	0
attr interpolationmode  none
attr source  packetSentToUpper
attr title  "packets passed to higher layer, sum(packetBytes)"
scalar MCProjectNetwork.host[8].lo0.lo 	droppedPkBitError:count 	0
attr interpolationmode  none
attr source  dropPkBitError
attr title  "packets dropped/bit error, count"
scalar MCProjectNetwork.host[8].lo0.lo 	droppedPkBitError:sum(packetBytes) 	0
attr interpolationmode  none
attr source  dropPkBitError
attr title  "packets dropped/bit error, sum(packetBytes)"
scalar MCProjectNetwork.host[8].wlan[0].mgmt 	dropPkByQueue:count 	0
attr interpolationmode  none
attr source  dropPkByQueue
attr title  "packets dropped by queue, count"
scalar MCProjectNetwork.host[8].wlan[0].mgmt 	dropPkByQueue:sum(packetBytes) 	0
attr interpolationmode  none
attr source  dropPkByQueue
attr title  "packets dropped by queue, sum(packetBytes)"
scalar MCProjectNetwork.host[8].wlan[0].mgmt 	dataQueueLen:max 	0
attr interpolationmode  sample-hold
attr title  "data queue length, max"
scalar MCProjectNetwork.host[8].wlan[0].mgmt 	dataQueueLen:timeavg 	0
attr interpolationmode  sample-hold
attr title  "data queue length, timeavg"
scalar MCProjectNetwork.host[8].wlan[0].mac 	"number of received packets" 	0
scalar MCProjectNetwork.host[8].wlan[0].mac 	"number of collisions" 	7
scalar MCProjectNetwork.host[8].wlan[0].mac 	"number of internal collisions" 	0
scalar MCProjectNetwork.host[8].wlan[0].mac 	"number of retry for AC 0" 	0
scalar MCProjectNetwork.host[8].wlan[0].mac 	"sent and received bits" 	2256
scalar MCProjectNetwork.host[8].wlan[0].mac 	"sent packet within AC 0" 	0
scalar MCProjectNetwork.host[8].wlan[0].mac 	"sent in TXOP " 	0
scalar MCProjectNetwork.host[8].wlan[0].mac 	"sentWithoutRetry AC 0" 	0
scalar MCProjectNetwork.host[8].wlan[0].mac 	"numGivenUp AC 0" 	0
scalar MCProjectNetwork.host[8].wlan[0].mac 	"numDropped AC 0" 	0
scalar MCProjectNetwork.host[8].wlan[0].mac 	rcvdPkFromHL:count 	3
attr interpolationmode  none
attr source  packetReceivedFromUpper
attr title  "packets received from higher layer, count"
scalar MCProjectNetwork.host[8].wlan[0].mac 	rcvdPkFromHL:sum(packetBytes) 	282
attr interpolationmode  none
attr source  packetReceivedFromUpper
attr title  "packets received from higher layer, sum(packetBytes)"
scalar MCProjectNetwork.host[8].wlan[0].mac 	passedUpPk:count 	19
attr interpolationmode  none
attr source  packetSentToUpper
attr title  "packets passed to higher layer, count"
scalar MCProjectNetwork.host[8].wlan[0].mac 	passedUpPk:sum(packetBytes) 	1762
attr interpolationmode  none
attr source  packetSentToUpper
attr title  "packets passed to higher layer, sum(packetBytes)"
scalar MCProjectNetwork.host[8].wlan[0].mac 	rcvdPkFromLL:count 	40
attr interpolationmode  none
attr source  packetReceivedFromLower
attr title  "packets received from lower layer, count"
scalar MCProjectNetwork.host[8].wlan[0].mac 	rcvdPkFromLL:sum(packetBytes) 	3180
attr interpolationmode  none
attr source  packetReceivedFromLower
attr title  "packets received from lower layer, sum(packetBytes)"
scalar MCProjectNetwork.host[8].wlan[0].mac 	sentDownPk:count 	3
attr interpolationmode  none
attr source  packetSentToLower
attr title  "packets sent to lower layer, count"
scalar MCProjectNetwork.host[8].wlan[0].mac 	sentDownPk:sum(packetBytes) 	282
attr interpolationmode  none
attr source  packetSentToLower
attr title  "packets sent to lower layer, sum(packetBytes)"
scalar MCProjectNetwork.host[8].wlan[0].radio 	lossRate:min 	nan
attr interpolationmode  backward-sample-hold
attr title  "packet loss rate, min"
scalar MCProjectNetwork.host[8].wlan[0].radio 	lossRate:max 	nan
attr interpolationmode  backward-sample-hold
attr title  "packet loss rate, max"
scalar MCProjectNetwork.host[8].wlan[0].radio 	lossRate:timeavg 	nan
attr interpolationmode  backward-sample-hold
attr title  "packet loss rate, timeavg"
statistic MCProjectNetwork.host[8].wlan[0].radio 	channelNo:histogram
field count 1
field mean 0
field stddev nan
field sum 0
field sqrsum 0
field min 0
field max 0
attr interpolationmode  sample-hold
attr title  "channel no, histogram"
bin	-INF	0
bin	-0.5	0
bin	-0.46666666666667	0
bin	-0.43333333333333	0
bin	-0.4	0
bin	-0.36666666666667	0
bin	-0.33333333333333	0
bin	-0.3	0
bin	-0.26666666666667	0
bin	-0.23333333333333	0
bin	-0.2	0
bin	-0.16666666666667	0
bin	-0.13333333333333	0
bin	-0.1	0
bin	-0.066666666666667	0
bin	-0.033333333333333	0
bin	-6.9388939039072e-018	1
bin	0.033333333333333	0
bin	0.066666666666667	0
bin	0.1	0
bin	0.13333333333333	0
bin	0.16666666666667	0
bin	0.2	0
bin	0.23333333333333	0
bin	0.26666666666667	0
bin	0.3	0
bin	0.33333333333333	0
bin	0.36666666666667	0
bin	0.4	0
bin	0.43333333333333	0
bin	0.46666666666667	0
bin	0.5	0
scalar MCProjectNetwork.host[8].wlan[0].radio 	radioState:count 	93
attr interpolationmode  sample-hold
attr title  "radio state (enum), count"
scalar MCProjectNetwork.host[8].wlan[0].radio 	bitrate:min 	2000000
attr interpolationmode  sample-hold
attr title  "tx bitrate, min"
attr unit  bps
scalar MCProjectNetwork.host[8].wlan[0].radio 	bitrate:max 	2000000
attr interpolationmode  sample-hold
attr title  "tx bitrate, max"
attr unit  bps
scalar MCProjectNetwork.host[8].wlan[0].radio 	bitrate:timeavg 	2000000
attr interpolationmode  sample-hold
attr title  "tx bitrate, timeavg"
attr unit  bps
scalar MCProjectNetwork.host[9].networkLayer.arp 	initiatedARPResolution:count 	0
attr title  "ARP initiated resolutions, count"
scalar MCProjectNetwork.host[9].networkLayer.arp 	sentReply:count 	0
attr title  "ARP replies sent, count"
scalar MCProjectNetwork.host[9].networkLayer.arp 	sentReq:count 	0
attr title  "ARP request sent, count"
scalar MCProjectNetwork.host[9].networkLayer.arp 	failedARPResolution:count 	0
attr title  "ARP failed resolutions, count"
scalar MCProjectNetwork.host[9].networkLayer.arp 	completedARPResolution:count 	0
attr title  "ARP completed resolutions, count"
scalar MCProjectNetwork.host[9].lo0.lo 	rcvdPkFromHL:count 	0
attr interpolationmode  none
attr source  packetReceivedFromUpper
attr title  "packets received from higher layer, count"
scalar MCProjectNetwork.host[9].lo0.lo 	rcvdPkFromHL:sum(packetBytes) 	0
attr interpolationmode  none
attr source  packetReceivedFromUpper
attr title  "packets received from higher layer, sum(packetBytes)"
scalar MCProjectNetwork.host[9].lo0.lo 	passedUpPk:count 	0
attr interpolationmode  none
attr source  packetSentToUpper
attr title  "packets passed to higher layer, count"
scalar MCProjectNetwork.host[9].lo0.lo 	passedUpPk:sum(packetBytes) 	0
attr interpolationmode  none
attr source  packetSentToUpper
attr title  "packets passed to higher layer, sum(packetBytes)"
scalar MCProjectNetwork.host[9].lo0.lo 	droppedPkBitError:count 	0
attr interpolationmode  none
attr source  dropPkBitError
attr title  "packets dropped/bit error, count"
scalar MCProjectNetwork.host[9].lo0.lo 	droppedPkBitError:sum(packetBytes) 	0
attr interpolationmode  none
attr source  dropPkBitError
attr title  "packets dropped/bit error, sum(packetBytes)"
scalar MCProjectNetwork.host[9].wlan[0].mgmt 	dropPkByQueue:count 	0
attr interpolationmode  none
attr source  dropPkByQueue
attr title  "packets dropped by queue, count"
scalar MCProjectNetwork.host[9].wlan[0].mgmt 	dropPkByQueue:sum(packetBytes) 	0
attr interpolationmode  none
attr source  dropPkByQueue
attr title  "packets dropped by queue, sum(packetBytes)"
scalar MCProjectNetwork.host[9].wlan[0].mgmt 	dataQueueLen:max 	0
attr interpolationmode  sample-hold
attr title  "data queue length, max"
scalar MCProjectNetwork.host[9].wlan[0].mgmt 	dataQueueLen:timeavg 	0
attr interpolationmode  sample-hold
attr title  "data queue length, timeavg"
scalar MCProjectNetwork.host[9].wlan[0].mac 	"number of received packets" 	0
scalar MCProjectNetwork.host[9].wlan[0].mac 	"number of collisions" 	1
scalar MCProjectNetwork.host[9].wlan[0].mac 	"number of internal collisions" 	0
scalar MCProjectNetwork.host[9].wlan[0].mac 	"number of retry for AC 0" 	0
scalar MCProjectNetwork.host[9].wlan[0].mac 	"sent and received bits" 	1504
scalar MCProjectNetwork.host[9].wlan[0].mac 	"sent packet within AC 0" 	0
scalar MCProjectNetwork.host[9].wlan[0].mac 	"sent in TXOP " 	0
scalar MCProjectNetwork.host[9].wlan[0].mac 	"sentWithoutRetry AC 0" 	0
scalar MCProjectNetwork.host[9].wlan[0].mac 	"numGivenUp AC 0" 	0
scalar MCProjectNetwork.host[9].wlan[0].mac 	"numDropped AC 0" 	0
scalar MCProjectNetwork.host[9].wlan[0].mac 	rcvdPkFromHL:count 	2
attr interpolationmode  none
attr source  packetReceivedFromUpper
attr title  "packets received from higher layer, count"
scalar MCProjectNetwork.host[9].wlan[0].mac 	rcvdPkFromHL:sum(packetBytes) 	188
attr interpolationmode  none
attr source  packetReceivedFromUpper
attr title  "packets received from higher layer, sum(packetBytes)"
scalar MCProjectNetwork.host[9].wlan[0].mac 	passedUpPk:count 	15
attr interpolationmode  none
attr source  packetSentToUpper
attr title  "packets passed to higher layer, count"
scalar MCProjectNetwork.host[9].wlan[0].mac 	passedUpPk:sum(packetBytes) 	1410
attr interpolationmode  none
attr source  packetSentToUpper
attr title  "packets passed to higher layer, sum(packetBytes)"
scalar MCProjectNetwork.host[9].wlan[0].mac 	rcvdPkFromLL:count 	16
attr interpolationmode  none
attr source  packetReceivedFromLower
attr title  "packets received from lower layer, count"
scalar MCProjectNetwork.host[9].wlan[0].mac 	rcvdPkFromLL:sum(packetBytes) 	1504
attr interpolationmode  none
attr source  packetReceivedFromLower
attr title  "packets received from lower layer, sum(packetBytes)"
scalar MCProjectNetwork.host[9].wlan[0].mac 	sentDownPk:count 	2
attr interpolationmode  none
attr source  packetSentToLower
attr title  "packets sent to lower layer, count"
scalar MCProjectNetwork.host[9].wlan[0].mac 	sentDownPk:sum(packetBytes) 	188
attr interpolationmode  none
attr source  packetSentToLower
attr title  "packets sent to lower layer, sum(packetBytes)"
scalar MCProjectNetwork.host[9].wlan[0].radio 	lossRate:min 	nan
attr interpolationmode  backward-sample-hold
attr title  "packet loss rate, min"
scalar MCProjectNetwork.host[9].wlan[0].radio 	lossRate:max 	nan
attr interpolationmode  backward-sample-hold
attr title  "packet loss rate, max"
scalar MCProjectNetwork.host[9].wlan[0].radio 	lossRate:timeavg 	nan
attr interpolationmode  backward-sample-hold
attr title  "packet loss rate, timeavg"
statistic MCProjectNetwork.host[9].wlan[0].radio 	channelNo:histogram
field count 1
field mean 0
field stddev nan
field sum 0
field sqrsum 0
field min 0
field max 0
attr interpolationmode  sample-hold
attr title  "channel no, histogram"
bin	-INF	0
bin	-0.5	0
bin	-0.46666666666667	0
bin	-0.43333333333333	0
bin	-0.4	0
bin	-0.36666666666667	0
bin	-0.33333333333333	0
bin	-0.3	0
bin	-0.26666666666667	0
bin	-0.23333333333333	0
bin	-0.2	0
bin	-0.16666666666667	0
bin	-0.13333333333333	0
bin	-0.1	0
bin	-0.066666666666667	0
bin	-0.033333333333333	0
bin	-6.9388939039072e-018	1
bin	0.033333333333333	0
bin	0.066666666666667	0
bin	0.1	0
bin	0.13333333333333	0
bin	0.16666666666667	0
bin	0.2	0
bin	0.23333333333333	0
bin	0.26666666666667	0
bin	0.3	0
bin	0.33333333333333	0
bin	0.36666666666667	0
bin	0.4	0
bin	0.43333333333333	0
bin	0.46666666666667	0
bin	0.5	0
scalar MCProjectNetwork.host[9].wlan[0].radio 	radioState:count 	43
attr interpolationmode  sample-hold
attr title  "radio state (enum), count"
scalar MCProjectNetwork.host[9].wlan[0].radio 	bitrate:min 	2000000
attr interpolationmode  sample-hold
attr title  "tx bitrate, min"
attr unit  bps
scalar MCProjectNetwork.host[9].wlan[0].radio 	bitrate:max 	2000000
attr interpolationmode  sample-hold
attr title  "tx bitrate, max"
attr unit  bps
scalar MCProjectNetwork.host[9].wlan[0].radio 	bitrate:timeavg 	2000000
attr interpolationmode  sample-hold
attr title  "tx bitrate, timeavg"
attr unit  bps
scalar MCProjectNetwork.host[10].networkLayer.arp 	initiatedARPResolution:count 	0
attr title  "ARP initiated resolutions, count"
scalar MCProjectNetwork.host[10].networkLayer.arp 	sentReply:count 	0
attr title  "ARP replies sent, count"
scalar MCProjectNetwork.host[10].networkLayer.arp 	sentReq:count 	0
attr title  "ARP request sent, count"
scalar MCProjectNetwork.host[10].networkLayer.arp 	failedARPResolution:count 	0
attr title  "ARP failed resolutions, count"
scalar MCProjectNetwork.host[10].networkLayer.arp 	completedARPResolution:count 	0
attr title  "ARP completed resolutions, count"
scalar MCProjectNetwork.host[10].lo0.lo 	rcvdPkFromHL:count 	0
attr interpolationmode  none
attr source  packetReceivedFromUpper
attr title  "packets received from higher layer, count"
scalar MCProjectNetwork.host[10].lo0.lo 	rcvdPkFromHL:sum(packetBytes) 	0
attr interpolationmode  none
attr source  packetReceivedFromUpper
attr title  "packets received from higher layer, sum(packetBytes)"
scalar MCProjectNetwork.host[10].lo0.lo 	passedUpPk:count 	0
attr interpolationmode  none
attr source  packetSentToUpper
attr title  "packets passed to higher layer, count"
scalar MCProjectNetwork.host[10].lo0.lo 	passedUpPk:sum(packetBytes) 	0
attr interpolationmode  none
attr source  packetSentToUpper
attr title  "packets passed to higher layer, sum(packetBytes)"
scalar MCProjectNetwork.host[10].lo0.lo 	droppedPkBitError:count 	0
attr interpolationmode  none
attr source  dropPkBitError
attr title  "packets dropped/bit error, count"
scalar MCProjectNetwork.host[10].lo0.lo 	droppedPkBitError:sum(packetBytes) 	0
attr interpolationmode  none
attr source  dropPkBitError
attr title  "packets dropped/bit error, sum(packetBytes)"
scalar MCProjectNetwork.host[10].wlan[0].mgmt 	dropPkByQueue:count 	0
attr interpolationmode  none
attr source  dropPkByQueue
attr title  "packets dropped by queue, count"
scalar MCProjectNetwork.host[10].wlan[0].mgmt 	dropPkByQueue:sum(packetBytes) 	0
attr interpolationmode  none
attr source  dropPkByQueue
attr title  "packets dropped by queue, sum(packetBytes)"
scalar MCProjectNetwork.host[10].wlan[0].mgmt 	dataQueueLen:max 	0
attr interpolationmode  sample-hold
attr title  "data queue length, max"
scalar MCProjectNetwork.host[10].wlan[0].mgmt 	dataQueueLen:timeavg 	0
attr interpolationmode  sample-hold
attr title  "data queue length, timeavg"
scalar MCProjectNetwork.host[10].wlan[0].mac 	"number of received packets" 	0
scalar MCProjectNetwork.host[10].wlan[0].mac 	"number of collisions" 	12
scalar MCProjectNetwork.host[10].wlan[0].mac 	"number of internal collisions" 	0
scalar MCProjectNetwork.host[10].wlan[0].mac 	"number of retry for AC 0" 	0
scalar MCProjectNetwork.host[10].wlan[0].mac 	"sent and received bits" 	2256
scalar MCProjectNetwork.host[10].wlan[0].mac 	"sent packet within AC 0" 	0
scalar MCProjectNetwork.host[10].wlan[0].mac 	"sent in TXOP " 	0
scalar MCProjectNetwork.host[10].wlan[0].mac 	"sentWithoutRetry AC 0" 	0
scalar MCProjectNetwork.host[10].wlan[0].mac 	"numGivenUp AC 0" 	0
scalar MCProjectNetwork.host[10].wlan[0].mac 	"numDropped AC 0" 	0
scalar MCProjectNetwork.host[10].wlan[0].mac 	rcvdPkFromHL:count 	3
attr interpolationmode  none
attr source  packetReceivedFromUpper
attr title  "packets received from higher layer, count"
scalar MCProjectNetwork.host[10].wlan[0].mac 	rcvdPkFromHL:sum(packetBytes) 	282
attr interpolationmode  none
attr source  packetReceivedFromUpper
attr title  "packets received from higher layer, sum(packetBytes)"
scalar MCProjectNetwork.host[10].wlan[0].mac 	passedUpPk:count 	17
attr interpolationmode  none
attr source  packetSentToUpper
attr title  "packets passed to higher layer, count"
scalar MCProjectNetwork.host[10].wlan[0].mac 	passedUpPk:sum(packetBytes) 	1574
attr interpolationmode  none
attr source  packetSentToUpper
attr title  "packets passed to higher layer, sum(packetBytes)"
scalar MCProjectNetwork.host[10].wlan[0].mac 	rcvdPkFromLL:count 	41
attr interpolationmode  none
attr source  packetReceivedFromLower
attr title  "packets received from lower layer, count"
scalar MCProjectNetwork.host[10].wlan[0].mac 	rcvdPkFromLL:sum(packetBytes) 	3274
attr interpolationmode  none
attr source  packetReceivedFromLower
attr title  "packets received from lower layer, sum(packetBytes)"
scalar MCProjectNetwork.host[10].wlan[0].mac 	sentDownPk:count 	3
attr interpolationmode  none
attr source  packetSentToLower
attr title  "packets sent to lower layer, count"
scalar MCProjectNetwork.host[10].wlan[0].mac 	sentDownPk:sum(packetBytes) 	282
attr interpolationmode  none
attr source  packetSentToLower
attr title  "packets sent to lower layer, sum(packetBytes)"
scalar MCProjectNetwork.host[10].wlan[0].radio 	lossRate:min 	nan
attr interpolationmode  backward-sample-hold
attr title  "packet loss rate, min"
scalar MCProjectNetwork.host[10].wlan[0].radio 	lossRate:max 	nan
attr interpolationmode  backward-sample-hold
attr title  "packet loss rate, max"
scalar MCProjectNetwork.host[10].wlan[0].radio 	lossRate:timeavg 	nan
attr interpolationmode  backward-sample-hold
attr title  "packet loss rate, timeavg"
statistic MCProjectNetwork.host[10].wlan[0].radio 	channelNo:histogram
field count 1
field mean 0
field stddev nan
field sum 0
field sqrsum 0
field min 0
field max 0
attr interpolationmode  sample-hold
attr title  "channel no, histogram"
bin	-INF	0
bin	-0.5	0
bin	-0.46666666666667	0
bin	-0.43333333333333	0
bin	-0.4	0
bin	-0.36666666666667	0
bin	-0.33333333333333	0
bin	-0.3	0
bin	-0.26666666666667	0
bin	-0.23333333333333	0
bin	-0.2	0
bin	-0.16666666666667	0
bin	-0.13333333333333	0
bin	-0.1	0
bin	-0.066666666666667	0
bin	-0.033333333333333	0
bin	-6.9388939039072e-018	1
bin	0.033333333333333	0
bin	0.066666666666667	0
bin	0.1	0
bin	0.13333333333333	0
bin	0.16666666666667	0
bin	0.2	0
bin	0.23333333333333	0
bin	0.26666666666667	0
bin	0.3	0
bin	0.33333333333333	0
bin	0.36666666666667	0
bin	0.4	0
bin	0.43333333333333	0
bin	0.46666666666667	0
bin	0.5	0
scalar MCProjectNetwork.host[10].wlan[0].radio 	radioState:count 	89
attr interpolationmode  sample-hold
attr title  "radio state (enum), count"
scalar MCProjectNetwork.host[10].wlan[0].radio 	bitrate:min 	2000000
attr interpolationmode  sample-hold
attr title  "tx bitrate, min"
attr unit  bps
scalar MCProjectNetwork.host[10].wlan[0].radio 	bitrate:max 	2000000
attr interpolationmode  sample-hold
attr title  "tx bitrate, max"
attr unit  bps
scalar MCProjectNetwork.host[10].wlan[0].radio 	bitrate:timeavg 	2000000
attr interpolationmode  sample-hold
attr title  "tx bitrate, timeavg"
attr unit  bps
scalar MCProjectNetwork.host[11].networkLayer.arp 	initiatedARPResolution:count 	0
attr title  "ARP initiated resolutions, count"
scalar MCProjectNetwork.host[11].networkLayer.arp 	sentReply:count 	0
attr title  "ARP replies sent, count"
scalar MCProjectNetwork.host[11].networkLayer.arp 	sentReq:count 	0
attr title  "ARP request sent, count"
scalar MCProjectNetwork.host[11].networkLayer.arp 	failedARPResolution:count 	0
attr title  "ARP failed resolutions, count"
scalar MCProjectNetwork.host[11].networkLayer.arp 	completedARPResolution:count 	0
attr title  "ARP completed resolutions, count"
scalar MCProjectNetwork.host[11].lo0.lo 	rcvdPkFromHL:count 	0
attr interpolationmode  none
attr source  packetReceivedFromUpper
attr title  "packets received from higher layer, count"
scalar MCProjectNetwork.host[11].lo0.lo 	rcvdPkFromHL:sum(packetBytes) 	0
attr interpolationmode  none
attr source  packetReceivedFromUpper
attr title  "packets received from higher layer, sum(packetBytes)"
scalar MCProjectNetwork.host[11].lo0.lo 	passedUpPk:count 	0
attr interpolationmode  none
attr source  packetSentToUpper
attr title  "packets passed to higher layer, count"
scalar MCProjectNetwork.host[11].lo0.lo 	passedUpPk:sum(packetBytes) 	0
attr interpolationmode  none
attr source  packetSentToUpper
attr title  "packets passed to higher layer, sum(packetBytes)"
scalar MCProjectNetwork.host[11].lo0.lo 	droppedPkBitError:count 	0
attr interpolationmode  none
attr source  dropPkBitError
attr title  "packets dropped/bit error, count"
scalar MCProjectNetwork.host[11].lo0.lo 	droppedPkBitError:sum(packetBytes) 	0
attr interpolationmode  none
attr source  dropPkBitError
attr title  "packets dropped/bit error, sum(packetBytes)"
scalar MCProjectNetwork.host[11].wlan[0].mgmt 	dropPkByQueue:count 	0
attr interpolationmode  none
attr source  dropPkByQueue
attr title  "packets dropped by queue, count"
scalar MCProjectNetwork.host[11].wlan[0].mgmt 	dropPkByQueue:sum(packetBytes) 	0
attr interpolationmode  none
attr source  dropPkByQueue
attr title  "packets dropped by queue, sum(packetBytes)"
scalar MCProjectNetwork.host[11].wlan[0].mgmt 	dataQueueLen:max 	0
attr interpolationmode  sample-hold
attr title  "data queue length, max"
scalar MCProjectNetwork.host[11].wlan[0].mgmt 	dataQueueLen:timeavg 	0
attr interpolationmode  sample-hold
attr title  "data queue length, timeavg"
scalar MCProjectNetwork.host[11].wlan[0].mac 	"number of received packets" 	0
scalar MCProjectNetwork.host[11].wlan[0].mac 	"number of collisions" 	4
scalar MCProjectNetwork.host[11].wlan[0].mac 	"number of internal collisions" 	0
scalar MCProjectNetwork.host[11].wlan[0].mac 	"number of retry for AC 0" 	0
scalar MCProjectNetwork.host[11].wlan[0].mac 	"sent and received bits" 	2256
scalar MCProjectNetwork.host[11].wlan[0].mac 	"sent packet within AC 0" 	0
scalar MCProjectNetwork.host[11].wlan[0].mac 	"sent in TXOP " 	0
scalar MCProjectNetwork.host[11].wlan[0].mac 	"sentWithoutRetry AC 0" 	0
scalar MCProjectNetwork.host[11].wlan[0].mac 	"numGivenUp AC 0" 	0
scalar MCProjectNetwork.host[11].wlan[0].mac 	"numDropped AC 0" 	0
scalar MCProjectNetwork.host[11].wlan[0].mac 	rcvdPkFromHL:count 	3
attr interpolationmode  none
attr source  packetReceivedFromUpper
attr title  "packets received from higher layer, count"
scalar MCProjectNetwork.host[11].wlan[0].mac 	rcvdPkFromHL:sum(packetBytes) 	282
attr interpolationmode  none
attr source  packetReceivedFromUpper
attr title  "packets received from higher layer, sum(packetBytes)"
scalar MCProjectNetwork.host[11].wlan[0].mac 	passedUpPk:count 	14
attr interpolationmode  none
attr source  packetSentToUpper
attr title  "packets passed to higher layer, count"
scalar MCProjectNetwork.host[11].wlan[0].mac 	passedUpPk:sum(packetBytes) 	1316
attr interpolationmode  none
attr source  packetSentToUpper
attr title  "packets passed to higher layer, sum(packetBytes)"
scalar MCProjectNetwork.host[11].wlan[0].mac 	rcvdPkFromLL:count 	23
attr interpolationmode  none
attr source  packetReceivedFromLower
attr title  "packets received from lower layer, count"
scalar MCProjectNetwork.host[11].wlan[0].mac 	rcvdPkFromLL:sum(packetBytes) 	1986
attr interpolationmode  none
attr source  packetReceivedFromLower
attr title  "packets received from lower layer, sum(packetBytes)"
scalar MCProjectNetwork.host[11].wlan[0].mac 	sentDownPk:count 	3
attr interpolationmode  none
attr source  packetSentToLower
attr title  "packets sent to lower layer, count"
scalar MCProjectNetwork.host[11].wlan[0].mac 	sentDownPk:sum(packetBytes) 	282
attr interpolationmode  none
attr source  packetSentToLower
attr title  "packets sent to lower layer, sum(packetBytes)"
scalar MCProjectNetwork.host[11].wlan[0].radio 	lossRate:min 	nan
attr interpolationmode  backward-sample-hold
attr title  "packet loss rate, min"
scalar MCProjectNetwork.host[11].wlan[0].radio 	lossRate:max 	nan
attr interpolationmode  backward-sample-hold
attr title  "packet loss rate, max"
scalar MCProjectNetwork.host[11].wlan[0].radio 	lossRate:timeavg 	nan
attr interpolationmode  backward-sample-hold
attr title  "packet loss rate, timeavg"
[...]
attr interpolationmode  sample-hold
attr title  "tx bitrate, max"
attr unit  bps
scalar MCProjectNetwork.host[16].wlan[0].radio 	bitrate:timeavg 	2000000
attr interpolationmode  sample-hold
attr title  "tx bitrate, timeavg"
attr unit  bps
scalar MCProjectNetwork.host[17].networkLayer.arp 	initiatedARPResolution:count 	0
attr title  "ARP initiated resolutions, count"
scalar MCProjectNetwork.host[17].networkLayer.arp 	sentReply:count 	0
attr title  "ARP replies sent, count"
scalar MCProjectNetwork.host[17].networkLayer.arp 	sentReq:count 	0
attr title  "ARP request sent, count"
scalar MCProjectNetwork.host[17].networkLayer.arp 	failedARPResolution:count 	0
attr title  "ARP failed resolutions, count"
scalar MCProjectNetwork.host[17].networkLayer.arp 	completedARPResolution:count 	0
attr title  "ARP completed resolutions, count"
scalar MCProjectNetwork.host[17].lo0.lo 	rcvdPkFromHL:count 	0
attr interpolationmode  none
attr source  packetReceivedFromUpper
attr title  "packets received from higher layer, count"
scalar MCProjectNetwork.host[17].lo0.lo 	rcvdPkFromHL:sum(packetBytes) 	0
attr interpolationmode  none
attr source  packetReceivedFromUpper
attr title  "packets received from higher layer, sum(packetBytes)"
scalar MCProjectNetwork.host[17].lo0.lo 	passedUpPk:count 	0
attr interpolationmode  none
attr source  packetSentToUpper
attr title  "packets passed to higher layer, count"
scalar MCProjectNetwork.host[17].lo0.lo 	passedUpPk:sum(packetBytes) 	0
attr interpolationmode  none
attr source  packetSentToUpper
attr title  "packets passed to higher layer, sum(packetBytes)"
scalar MCProjectNetwork.host[17].lo0.lo 	droppedPkBitError:count 	0
attr interpolationmode  none
attr source  dropPkBitError
attr title  "packets dropped/bit error, count"
scalar MCProjectNetwork.host[17].lo0.lo 	droppedPkBitError:sum(packetBytes) 	0
attr interpolationmode  none
attr source  dropPkBitError
attr title  "packets dropped/bit error, sum(packetBytes)"
scalar MCProjectNetwork.host[17].wlan[0].mgmt 	dropPkByQueue:count 	0
attr interpolationmode  none
attr source  dropPkByQueue
attr title  "packets dropped by queue, count"
scalar MCProjectNetwork.host[17].wlan[0].mgmt 	dropPkByQueue:sum(packetBytes) 	0
attr interpolationmode  none
attr source  dropPkByQueue
attr title  "packets dropped by queue, sum(packetBytes)"
scalar MCProjectNetwork.host[17].wlan[0].mgmt 	dataQueueLen:max 	0
attr interpolationmode  sample-hold
attr title  "data queue length, max"
scalar MCProjectNetwork.host[17].wlan[0].mgmt 	dataQueueLen:timeavg 	0
attr interpolationmode  sample-hold
attr title  "data queue length, timeavg"
scalar MCProjectNetwork.host[17].wlan[0].mac 	"number of received packets" 	0
scalar MCProjectNetwork.host[17].wlan[0].mac 	"number of collisions" 	14
scalar MCProjectNetwork.host[17].wlan[0].mac 	"number of internal collisions" 	0
scalar MCProjectNetwork.host[17].wlan[0].mac 	"number of retry for AC 0" 	0
scalar MCProjectNetwork.host[17].wlan[0].mac 	"sent and received bits" 	1504
scalar MCProjectNetwork.host[17].wlan[0].mac 	"sent packet within AC 0" 	0
scalar MCProjectNetwork.host[17].wlan[0].mac 	"sent in TXOP " 	0
scalar MCProjectNetwork.host[17].wlan[0].mac 	"sentWithoutRetry AC 0" 	0
scalar MCProjectNetwork.host[17].wlan[0].mac 	"numGivenUp AC 0" 	0
scalar MCProjectNetwork.host[17].wlan[0].mac 	"numDropped AC 0" 	0
scalar MCProjectNetwork.host[17].wlan[0].mac 	rcvdPkFromHL:count 	2
attr interpolationmode  none
attr source  packetReceivedFromUpper
attr title  "packets received from higher layer, count"
scalar MCProjectNetwork.host[17].wlan[0].mac 	rcvdPkFromHL:sum(packetBytes) 	188
attr interpolationmode  none
attr source  packetReceivedFromUpper
attr title  "packets received from higher layer, sum(packetBytes)"
scalar MCProjectNetwork.host[17].wlan[0].mac 	passedUpPk:count 	13
attr interpolationmode  none
attr source  packetSentToUpper
attr title  "packets passed to higher layer, count"
scalar MCProjectNetwork.host[17].wlan[0].mac 	passedUpPk:sum(packetBytes) 	1174
attr interpolationmode  none
attr source  packetSentToUpper
attr title  "packets passed to higher layer, sum(packetBytes)"
scalar MCProjectNetwork.host[17].wlan[0].mac 	rcvdPkFromLL:count 	41
attr interpolationmode  none
attr source  packetReceivedFromLower
attr title  "packets received from lower layer, count"
scalar MCProjectNetwork.host[17].wlan[0].mac 	rcvdPkFromLL:sum(packetBytes) 	3214
attr interpolationmode  none
attr source  packetReceivedFromLower
attr title  "packets received from lower layer, sum(packetBytes)"
scalar MCProjectNetwork.host[17].wlan[0].mac 	sentDownPk:count 	2
attr interpolationmode  none
attr source  packetSentToLower
attr title  "packets sent to lower layer, count"
scalar MCProjectNetwork.host[17].wlan[0].mac 	sentDownPk:sum(packetBytes) 	188
attr interpolationmode  none
attr source  packetSentToLower
attr title  "packets sent to lower layer, sum(packetBytes)"
scalar MCProjectNetwork.host[17].wlan[0].radio 	lossRate:min 	nan
attr interpolationmode  backward-sample-hold
attr title  "packet loss rate, min"
scalar MCProjectNetwork.host[17].wlan[0].radio 	lossRate:max 	nan
attr interpolationmode  backward-sample-hold
attr title  "packet loss rate, max"
scalar MCProjectNetwork.host[17].wlan[0].radio 	lossRate:timeavg 	nan
attr interpolationmode  backward-sample-hold
attr title  "packet loss rate, timeavg"
statistic MCProjectNetwork.host[17].wlan[0].radio 	channelNo:histogram
field count 1
field mean 0
field stddev nan
field sum 0
field sqrsum 0
field min 0
field max 0
attr interpolationmode  sample-hold
attr title  "channel no, histogram"
bin	-INF	0
bin	-0.5	0
bin	-0.46666666666667	0
bin	-0.43333333333333	0
bin	-0.4	0
bin	-0.36666666666667	0
bin	-0.33333333333333	0
bin	-0.3	0
bin	-0.26666666666667	0
bin	-0.23333333333333	0
bin	-0.2	0
bin	-0.16666666666667	0
bin	-0.13333333333333	0
bin	-0.1	0
bin	-0.066666666666667	0
bin	-0.033333333333333	0
bin	-6.9388939039072e-018	1
bin	0.033333333333333	0
bin	0.066666666666667	0
bin	0.1	0
bin	0.13333333333333	0
bin	0.16666666666667	0
bin	0.2	0
bin	0.23333333333333	0
bin	0.26666666666667	0
bin	0.3	0
bin	0.33333333333333	0
bin	0.36666666666667	0
bin	0.4	0
bin	0.43333333333333	0
bin	0.46666666666667	0
bin	0.5	0
scalar MCProjectNetwork.host[17].wlan[0].radio 	radioState:count 	85
attr interpolationmode  sample-hold
attr title  "radio state (enum), count"
scalar MCProjectNetwork.host[17].wlan[0].radio 	bitrate:min 	2000000
attr interpolationmode  sample-hold
attr title  "tx bitrate, min"
attr unit  bps
scalar MCProjectNetwork.host[17].wlan[0].radio 	bitrate:max 	2000000
attr interpolationmode  sample-hold
attr title  "tx bitrate, max"
attr unit  bps
scalar MCProjectNetwork.host[17].wlan[0].radio 	bitrate:timeavg 	2000000
attr interpolationmode  sample-hold
attr title  "tx bitrate, timeavg"
attr unit  bps
scalar MCProjectNetwork.host[18].networkLayer.arp 	initiatedARPResolution:count 	0
attr title  "ARP initiated resolutions, count"
scalar MCProjectNetwork.host[18].networkLayer.arp 	sentReply:count 	0
attr title  "ARP replies sent, count"
scalar MCProjectNetwork.host[18].networkLayer.arp 	sentReq:count 	0
attr title  "ARP request sent, count"
scalar MCProjectNetwork.host[18].networkLayer.arp 	failedARPResolution:count 	0
attr title  "ARP failed resolutions, count"
scalar MCProjectNetwork.host[18].networkLayer.arp 	completedARPResolution:count 	0
attr title  "ARP completed resolutions, count"
scalar MCProjectNetwork.host[18].lo0.lo 	rcvdPkFromHL:count 	0
attr interpolationmode  none
attr source  packetReceivedFromUpper
attr title  "packets received from higher layer, count"
scalar MCProjectNetwork.host[18].lo0.lo 	rcvdPkFromHL:sum(packetBytes) 	0
attr interpolationmode  none
attr source  packetReceivedFromUpper
attr title  "packets received from higher layer, sum(packetBytes)"
scalar MCProjectNetwork.host[18].lo0.lo 	passedUpPk:count 	0
attr interpolationmode  none
attr source  packetSentToUpper
attr title  "packets passed to higher layer, count"
scalar MCProjectNetwork.host[18].lo0.lo 	passedUpPk:sum(packetBytes) 	0
attr interpolationmode  none
attr source  packetSentToUpper
attr title  "packets passed to higher layer, sum(packetBytes)"
scalar MCProjectNetwork.host[18].lo0.lo 	droppedPkBitError:count 	0
attr interpolationmode  none
attr source  dropPkBitError
attr title  "packets dropped/bit error, count"
scalar MCProjectNetwork.host[18].lo0.lo 	droppedPkBitError:sum(packetBytes) 	0
attr interpolationmode  none
attr source  dropPkBitError
attr title  "packets dropped/bit error, sum(packetBytes)"
scalar MCProjectNetwork.host[18].wlan[0].mgmt 	dropPkByQueue:count 	0
attr interpolationmode  none
attr source  dropPkByQueue
attr title  "packets dropped by queue, count"
scalar MCProjectNetwork.host[18].wlan[0].mgmt 	dropPkByQueue:sum(packetBytes) 	0
attr interpolationmode  none
attr source  dropPkByQueue
attr title  "packets dropped by queue, sum(packetBytes)"
scalar MCProjectNetwork.host[18].wlan[0].mgmt 	dataQueueLen:max 	0
attr interpolationmode  sample-hold
attr title  "data queue length, max"
scalar MCProjectNetwork.host[18].wlan[0].mgmt 	dataQueueLen:timeavg 	0
attr interpolationmode  sample-hold
attr title  "data queue length, timeavg"
scalar MCProjectNetwork.host[18].wlan[0].mac 	"number of received packets" 	0
scalar MCProjectNetwork.host[18].wlan[0].mac 	"number of collisions" 	4
scalar MCProjectNetwork.host[18].wlan[0].mac 	"number of internal collisions" 	0
scalar MCProjectNetwork.host[18].wlan[0].mac 	"number of retry for AC 0" 	0
scalar MCProjectNetwork.host[18].wlan[0].mac 	"sent and received bits" 	2256
scalar MCProjectNetwork.host[18].wlan[0].mac 	"sent packet within AC 0" 	0
scalar MCProjectNetwork.host[18].wlan[0].mac 	"sent in TXOP " 	0
scalar MCProjectNetwork.host[18].wlan[0].mac 	"sentWithoutRetry AC 0" 	0
scalar MCProjectNetwork.host[18].wlan[0].mac 	"numGivenUp AC 0" 	0
scalar MCProjectNetwork.host[18].wlan[0].mac 	"numDropped AC 0" 	0
scalar MCProjectNetwork.host[18].wlan[0].mac 	rcvdPkFromHL:count 	3
attr interpolationmode  none
attr source  packetReceivedFromUpper
attr title  "packets received from higher layer, count"
scalar MCProjectNetwork.host[18].wlan[0].mac 	rcvdPkFromHL:sum(packetBytes) 	282
attr interpolationmode  none
attr source  packetReceivedFromUpper
attr title  "packets received from higher layer, sum(packetBytes)"
scalar MCProjectNetwork.host[18].wlan[0].mac 	passedUpPk:count 	6
attr interpolationmode  none
attr source  packetSentToUpper
attr title  "packets passed to higher layer, count"
scalar MCProjectNetwork.host[18].wlan[0].mac 	passedUpPk:sum(packetBytes) 	564
attr interpolationmode  none
attr source  packetSentToUpper
attr title  "packets passed to higher layer, sum(packetBytes)"
scalar MCProjectNetwork.host[18].wlan[0].mac 	rcvdPkFromLL:count 	13
attr interpolationmode  none
attr source  packetReceivedFromLower
attr title  "packets received from lower layer, count"
scalar MCProjectNetwork.host[18].wlan[0].mac 	rcvdPkFromLL:sum(packetBytes) 	1046
attr interpolationmode  none
attr source  packetReceivedFromLower
attr title  "packets received from lower layer, sum(packetBytes)"
scalar MCProjectNetwork.host[18].wlan[0].mac 	sentDownPk:count 	3
attr interpolationmode  none
attr source  packetSentToLower
attr title  "packets sent to lower layer, count"
scalar MCProjectNetwork.host[18].wlan[0].mac 	sentDownPk:sum(packetBytes) 	282
attr interpolationmode  none
attr source  packetSentToLower
attr title  "packets sent to lower layer, sum(packetBytes)"
scalar MCProjectNetwork.host[18].wlan[0].radio 	lossRate:min 	nan
attr interpolationmode  backward-sample-hold
attr title  "packet loss rate, min"
scalar MCProjectNetwork.host[18].wlan[0].radio 	lossRate:max 	nan
attr interpolationmode  backward-sample-hold
attr title  "packet loss rate, max"
scalar MCProjectNetwork.host[18].wlan[0].radio 	lossRate:timeavg 	nan
attr interpolationmode  backward-sample-hold
attr title  "packet loss rate, timeavg"
statistic MCProjectNetwork.host[18].wlan[0].radio 	channelNo:histogram
field count 1
field mean 0
field stddev nan
field sum 0
field sqrsum 0
field min 0
field max 0
attr interpolationmode  sample-hold
attr title  "channel no, histogram"
bin	-INF	0
bin	-0.5	0
bin	-0.46666666666667	0
bin	-0.43333333333333	0
bin	-0.4	0
bin	-0.36666666666667	0
bin	-0.33333333333333	0
bin	-0.3	0
bin	-0.26666666666667	0
bin	-0.23333333333333	0
bin	-0.2	0
bin	-0.16666666666667	0
bin	-0.13333333333333	0
bin	-0.1	0
bin	-0.066666666666667	0
bin	-0.033333333333333	0
bin	-6.9388939039072e-018	1
bin	0.033333333333333	0
bin	0.066666666666667	0
bin	0.1	0
bin	0.13333333333333	0
bin	0.16666666666667	0
bin	0.2	0
bin	0.23333333333333	0
bin	0.26666666666667	0
bin	0.3	0
bin	0.33333333333333	0
bin	0.36666666666667	0
bin	0.4	0
bin	0.43333333333333	0
bin	0.46666666666667	0
bin	0.5	0
scalar MCProjectNetwork.host[18].wlan[0].radio 	radioState:count 	45
attr interpolationmode  sample-hold
attr title  "radio state (enum), count"
scalar MCProjectNetwork.host[18].wlan[0].radio 	bitrate:min 	2000000
attr interpolationmode  sample-hold
attr title  "tx bitrate, min"
attr unit  bps
scalar MCProjectNetwork.host[18].wlan[0].radio 	bitrate:max 	2000000
attr interpolationmode  sample-hold
attr title  "tx bitrate, max"
attr unit  bps
scalar MCProjectNetwork.host[18].wlan[0].radio 	bitrate:timeavg 	2000000
attr interpolationmode  sample-hold
attr title  "tx bitrate, timeavg"
attr unit  bps
scalar MCProjectNetwork.host[19].networkLayer.arp 	initiatedARPResolution:count 	0
attr title  "ARP initiated resolutions, count"
scalar MCProjectNetwork.host[19].networkLayer.arp 	sentReply:count 	0
attr title  "ARP replies sent, count"
scalar MCProjectNetwork.host[19].networkLayer.arp 	sentReq:count 	0
attr title  "ARP request sent, count"
scalar MCProjectNetwork.host[19].networkLayer.arp 	failedARPResolution:count 	0
attr title  "ARP failed resolutions, count"
scalar MCProjectNetwork.host[19].networkLayer.arp 	completedARPResolution:count 	0
attr title  "ARP completed resolutions, count"
scalar MCProjectNetwork.host[19].lo0.lo 	rcvdPkFromHL:count 	0
attr interpolationmode  none
attr source  packetReceivedFromUpper
attr title  "packets received from higher layer, count"
scalar MCProjectNetwork.host[19].lo0.lo 	rcvdPkFromHL:sum(packetBytes) 	0
attr interpolationmode  none
attr source  packetReceivedFromUpper
attr title  "packets received from higher layer, sum(packetBytes)"
scalar MCProjectNetwork.host[19].lo0.lo 	passedUpPk:count 	0
attr interpolationmode  none
attr source  packetSentToUpper
attr title  "packets passed to higher layer, count"
scalar MCProjectNetwork.host[19].lo0.lo 	passedUpPk:sum(packetBytes) 	0
attr interpolationmode  none
attr source  packetSentToUpper
attr title  "packets passed to higher layer, sum(packetBytes)"
scalar MCProjectNetwork.host[19].lo0.lo 	droppedPkBitError:count 	0
attr interpolationmode  none
attr source  dropPkBitError
attr title  "packets dropped/bit error, count"
scalar MCProjectNetwork.host[19].lo0.lo 	droppedPkBitError:sum(packetBytes) 	0
attr interpolationmode  none
attr source  dropPkBitError
attr title  "packets dropped/bit error, sum(packetBytes)"
scalar MCProjectNetwork.host[19].wlan[0].mgmt 	dropPkByQueue:count 	0
attr interpolationmode  none
attr source  dropPkByQueue
attr title  "packets dropped by queue, count"
scalar MCProjectNetwork.host[19].wlan[0].mgmt 	dropPkByQueue:sum(packetBytes) 	0
attr interpolationmode  none
attr source  dropPkByQueue
attr title  "packets dropped by queue, sum(packetBytes)"
scalar MCProjectNetwork.host[19].wlan[0].mgmt 	dataQueueLen:max 	0
attr interpolationmode  sample-hold
attr title  "data queue length, max"
scalar MCProjectNetwork.host[19].wlan[0].mgmt 	dataQueueLen:timeavg 	0
attr interpolationmode  sample-hold
attr title  "data queue length, timeavg"
scalar MCProjectNetwork.host[19].wlan[0].mac 	"number of received packets" 	0
scalar MCProjectNetwork.host[19].wlan[0].mac 	"number of collisions" 	12
scalar MCProjectNetwork.host[19].wlan[0].mac 	"number of internal collisions" 	0
scalar MCProjectNetwork.host[19].wlan[0].mac 	"number of retry for AC 0" 	0
scalar MCProjectNetwork.host[19].wlan[0].mac 	"sent and received bits" 	2256
scalar MCProjectNetwork.host[19].wlan[0].mac 	"sent packet within AC 0" 	0
scalar MCProjectNetwork.host[19].wlan[0].mac 	"sent in TXOP " 	0
scalar MCProjectNetwork.host[19].wlan[0].mac 	"sentWithoutRetry AC 0" 	0
scalar MCProjectNetwork.host[19].wlan[0].mac 	"numGivenUp AC 0" 	0
scalar MCProjectNetwork.host[19].wlan[0].mac 	"numDropped AC 0" 	0
scalar MCProjectNetwork.host[19].wlan[0].mac 	rcvdPkFromHL:count 	3
attr interpolationmode  none
attr source  packetReceivedFromUpper
attr title  "packets received from higher layer, count"
scalar MCProjectNetwork.host[19].wlan[0].mac 	rcvdPkFromHL:sum(packetBytes) 	282
attr interpolationmode  none
attr source  packetReceivedFromUpper
attr title  "packets received from higher layer, sum(packetBytes)"
scalar MCProjectNetwork.host[19].wlan[0].mac 	passedUpPk:count 	11
attr interpolationmode  none
attr source  packetSentToUpper
attr title  "packets passed to higher layer, count"
scalar MCProjectNetwork.host[19].wlan[0].mac 	passedUpPk:sum(packetBytes) 	1010
attr interpolationmode  none
attr source  packetSentToUpper
attr title  "packets passed to higher layer, sum(packetBytes)"
scalar MCProjectNetwork.host[19].wlan[0].mac 	rcvdPkFromLL:count 	35
attr interpolationmode  none
attr source  packetReceivedFromLower
attr title  "packets received from lower layer, count"
scalar MCProjectNetwork.host[19].wlan[0].mac 	rcvdPkFromLL:sum(packetBytes) 	2710
attr interpolationmode  none
attr source  packetReceivedFromLower
attr title  "packets received from lower layer, sum(packetBytes)"
scalar MCProjectNetwork.host[19].wlan[0].mac 	sentDownPk:count 	3
attr interpolationmode  none
attr source  packetSentToLower
attr title  "packets sent to lower layer, count"
scalar MCProjectNetwork.host[19].wlan[0].mac 	sentDownPk:sum(packetBytes) 	282
attr interpolationmode  none
attr source  packetSentToLower
attr title  "packets sent to lower layer, sum(packetBytes)"
scalar MCProjectNetwork.host[19].wlan[0].radio 	lossRate:min 	nan
attr interpolationmode  backward-sample-hold
attr title  "packet loss rate, min"
scalar MCProjectNetwork.host[19].wlan[0].radio 	lossRate:max 	nan
attr interpolationmode  backward-sample-hold
attr title  "packet loss rate, max"
scalar MCProjectNetwork.host[19].wlan[0].radio 	lossRate:timeavg 	nan
attr interpolationmode  backward-sample-hold
attr title  "packet loss rate, timeavg"
statistic MCProjectNetwork.host[19].wlan[0].radio 	channelNo:histogram
field count 1
field mean 0
field stddev nan
field sum 0
field sqrsum 0
field min 0
field max 0
attr interpolationmode  sample-hold
attr title  "channel no, histogram"
bin	-INF	0
bin	-0.5	0
bin	-0.46666666666667	0
bin	-0.43333333333333	0
bin	-0.4	0
bin	-0.36666666666667	0
bin	-0.33333333333333	0
bin	-0.3	0
bin	-0.26666666666667	0
bin	-0.23333333333333	0
bin	-0.2	0
bin	-0.16666666666667	0
bin	-0.13333333333333	0
bin	-0.1	0
bin	-0.066666666666667	0
bin	-0.033333333333333	0
bin	-6.9388939039072e-018	1
bin	0.033333333333333	0
bin	0.066666666666667	0
bin	0.1	0
bin	0.13333333333333	0
bin	0.16666666666667	0
bin	0.2	0
bin	0.23333333333333	0
bin	0.26666666666667	0
bin	0.3	0
bin	0.33333333333333	0
bin	0.36666666666667	0
bin	0.4	0
bin	0.43333333333333	0
bin	0.46666666666667	0
bin	0.5	0
scalar MCProjectNetwork.host[19].wlan[0].radio 	radioState:count 	89
attr interpolationmode  sample-hold
attr title  "radio state (enum), count"
scalar MCProjectNetwork.host[19].wlan[0].radio 	bitrate:min 	2000000
attr interpolationmode  sample-hold
attr title  "tx bitrate, min"
attr unit  bps
scalar MCProjectNetwork.host[19].wlan[0].radio 	bitrate:max 	2000000
attr interpolationmode  sample-hold
attr title  "tx bitrate, max"
attr unit  bps
scalar MCProjectNetwork.host[19].wlan[0].radio 	bitrate:timeavg 	2000000
attr interpolationmode  sample-hold
attr title  "tx bitrate, timeavg"
attr unit  bps
