version 2
run DSR-0-20160414-23:03:48-1808
attr configname DSR
attr datetime 20160414-23:03:48
attr experiment DSR
attr inifile omnetpp.ini
attr iterationvars ""
attr iterationvars2 $repetition=0
attr measurement ""
attr network MCProjectNetwork
attr processid 1808
attr repetition 0
attr replication #0
attr resultdir results
attr runnumber 0
attr seedset 0

scalar MCProjectNetwork 	hackForCreateResultsFolder 	0
scalar MCProjectNetwork.host[0].networkLayer.arp 	initiatedARPResolution:count 	0
attr title  "ARP initiated resolutions, count"
scalar MCProjectNetwork.host[0].networkLayer.arp 	sentReply:count 	1
attr title  "ARP replies sent, count"
scalar MCProjectNetwork.host[0].networkLayer.arp 	sentReq:count 	0
attr title  "ARP request sent, count"
scalar MCProjectNetwork.host[0].networkLayer.arp 	failedARPResolution:count 	0
attr title  "ARP failed resolutions, count"
scalar MCProjectNetwork.host[0].networkLayer.arp 	completedARPResolution:count 	1
attr title  "ARP completed resolutions, count"
scalar MCProjectNetwork.host[0].lo0.lo 	rcvdPkFromHL:count 	0
attr interpolationmode  none
attr source  packetReceivedFromUpper
attr title  "packets received from higher layer, count"
scalar MCProjectNetwork.host[0].lo0.lo 	rcvdPkFromHL:sum(packetBytes) 	0
attr interpolationmode  none
attr source  packetReceivedFromUpper
attr title  "packets received from higher layer, sum(packetBytes)"
scalar MCProjectNetwork.host[0].lo0.lo 	passedUpPk:count 	0
attr interpolationmode  none
attr source  packetSentToUpper
attr title  "packets passed to higher layer, count"
scalar MCProjectNetwork.host[0].lo0.lo 	passedUpPk:sum(packetBytes) 	0
attr interpolationmode  none
attr source  packetSentToUpper
attr title  "packets passed to higher layer, sum(packetBytes)"
scalar MCProjectNetwork.host[0].lo0.lo 	droppedPkBitError:count 	0
attr interpolationmode  none
attr source  dropPkBitError
attr title  "packets dropped/bit error, count"
scalar MCProjectNetwork.host[0].lo0.lo 	droppedPkBitError:sum(packetBytes) 	0
attr interpolationmode  none
attr source  dropPkBitError
attr title  "packets dropped/bit error, sum(packetBytes)"
scalar MCProjectNetwork.host[0].wlan[0].mgmt 	dropPkByQueue:count 	0
attr interpolationmode  none
attr source  dropPkByQueue
attr title  "packets dropped by queue, count"
scalar MCProjectNetwork.host[0].wlan[0].mgmt 	dropPkByQueue:sum(packetBytes) 	0
attr interpolationmode  none
attr source  dropPkByQueue
attr title  "packets dropped by queue, sum(packetBytes)"
scalar MCProjectNetwork.host[0].wlan[0].mgmt 	dataQueueLen:max 	0
attr interpolationmode  sample-hold
attr title  "data queue length, max"
scalar MCProjectNetwork.host[0].wlan[0].mgmt 	dataQueueLen:timeavg 	0
attr interpolationmode  sample-hold
attr title  "data queue length, timeavg"
scalar MCProjectNetwork.host[0].wlan[0].mac 	"number of received packets" 	2
scalar MCProjectNetwork.host[0].wlan[0].mac 	"number of collisions" 	4
scalar MCProjectNetwork.host[0].wlan[0].mac 	"number of internal collisions" 	0
scalar MCProjectNetwork.host[0].wlan[0].mac 	"number of retry for AC 0" 	0
scalar MCProjectNetwork.host[0].wlan[0].mac 	"sent and received bits" 	2848
scalar MCProjectNetwork.host[0].wlan[0].mac 	"sent packet within AC 0" 	2
scalar MCProjectNetwork.host[0].wlan[0].mac 	"sent in TXOP " 	0
scalar MCProjectNetwork.host[0].wlan[0].mac 	"sentWithoutRetry AC 0" 	2
scalar MCProjectNetwork.host[0].wlan[0].mac 	"numGivenUp AC 0" 	0
scalar MCProjectNetwork.host[0].wlan[0].mac 	"numDropped AC 0" 	0
scalar MCProjectNetwork.host[0].wlan[0].mac 	rcvdPkFromHL:count 	5
attr interpolationmode  none
attr source  packetReceivedFromUpper
attr title  "packets received from higher layer, count"
scalar MCProjectNetwork.host[0].wlan[0].mac 	rcvdPkFromHL:sum(packetBytes) 	490
attr interpolationmode  none
attr source  packetReceivedFromUpper
attr title  "packets received from higher layer, sum(packetBytes)"
scalar MCProjectNetwork.host[0].wlan[0].mac 	passedUpPk:count 	11
attr interpolationmode  none
attr source  packetSentToUpper
attr title  "packets passed to higher layer, count"
scalar MCProjectNetwork.host[0].wlan[0].mac 	passedUpPk:sum(packetBytes) 	866
attr interpolationmode  none
attr source  packetSentToUpper
attr title  "packets passed to higher layer, sum(packetBytes)"
scalar MCProjectNetwork.host[0].wlan[0].mac 	rcvdPkFromLL:count 	20
attr interpolationmode  none
attr source  packetReceivedFromLower
attr title  "packets received from lower layer, count"
scalar MCProjectNetwork.host[0].wlan[0].mac 	rcvdPkFromLL:sum(packetBytes) 	1428
attr interpolationmode  none
attr source  packetReceivedFromLower
attr title  "packets received from lower layer, sum(packetBytes)"
scalar MCProjectNetwork.host[0].wlan[0].mac 	sentDownPk:count 	6
attr interpolationmode  none
attr source  packetSentToLower
attr title  "packets sent to lower layer, count"
scalar MCProjectNetwork.host[0].wlan[0].mac 	sentDownPk:sum(packetBytes) 	384
attr interpolationmode  none
attr source  packetSentToLower
attr title  "packets sent to lower layer, sum(packetBytes)"
scalar MCProjectNetwork.host[0].wlan[0].radio 	lossRate:min 	nan
attr interpolationmode  backward-sample-hold
attr title  "packet loss rate, min"
scalar MCProjectNetwork.host[0].wlan[0].radio 	lossRate:max 	nan
attr interpolationmode  backward-sample-hold
attr title  "packet loss rate, max"
scalar MCProjectNetwork.host[0].wlan[0].radio 	lossRate:timeavg 	nan
attr interpolationmode  backward-sample-hold
attr title  "packet loss rate, timeavg"
statistic MCProjectNetwork.host[0].wlan[0].radio 	channelNo:histogram
field count 1
field mean 0
field stddev nan
field sum 0
field sqrsum 0
field min 0
field max 0
attr interpolationmode  sample-hold
attr title  "channel no, histogram"
bin	-INF	0
bin	-0.5	0
bin	-0.46666666666667	0
bin	-0.43333333333333	0
bin	-0.4	0
bin	-0.36666666666667	0
bin	-0.33333333333333	0
bin	-0.3	0
bin	-0.26666666666667	0
bin	-0.23333333333333	0
bin	-0.2	0
bin	-0.16666666666667	0
bin	-0.13333333333333	0
bin	-0.1	0
bin	-0.066666666666667	0
bin	-0.033333333333333	0
bin	-6.9388939039072e-018	1
bin	0.033333333333333	0
bin	0.066666666666667	0
bin	0.1	0
bin	0.13333333333333	0
bin	0.16666666666667	0
bin	0.2	0
bin	0.23333333333333	0
bin	0.26666666666667	0
bin	0.3	0
bin	0.33333333333333	0
bin	0.36666666666667	0
bin	0.4	0
bin	0.43333333333333	0
bin	0.46666666666667	0
bin	0.5	0
scalar MCProjectNetwork.host[0].wlan[0].radio 	radioState:count 	59
attr interpolationmode  sample-hold
attr title  "radio state (enum), count"
scalar MCProjectNetwork.host[0].wlan[0].radio 	bitrate:min 	2000000
attr interpolationmode  sample-hold
attr title  "tx bitrate, min"
attr unit  bps
scalar MCProjectNetwork.host[0].wlan[0].radio 	bitrate:max 	2000000
attr interpolationmode  sample-hold
attr title  "tx bitrate, max"
attr unit  bps
scalar MCProjectNetwork.host[0].wlan[0].radio 	bitrate:timeavg 	2000000
attr interpolationmode  sample-hold
attr title  "tx bitrate, timeavg"
attr unit  bps
scalar MCProjectNetwork.host[0].pingApp[0] 	"Pings sent" 	2
scalar MCProjectNetwork.host[0].pingApp[0] 	"ping loss rate (%)" 	100
scalar MCProjectNetwork.host[0].pingApp[0] 	"ping out-of-order rate (%)" 	0
scalar MCProjectNetwork.host[0].pingApp[0] 	numOutOfOrderArrivals:last 	nan
attr interpolationmode  none
attr title  "ping out-of-order arrivals, last"
scalar MCProjectNetwork.host[0].pingApp[0] 	pingRxSeq:count 	0
attr interpolationmode  none
attr title  "ping rx seq, count"
scalar MCProjectNetwork.host[0].pingApp[0] 	pingTxSeq:count 	2
attr interpolationmode  none
attr title  "ping tx seq, count"
scalar MCProjectNetwork.host[0].pingApp[0] 	numLost:last 	nan
attr interpolationmode  none
attr title  "pings lost, last"
statistic MCProjectNetwork.host[0].pingApp[0] 	rtt:histogram
field count 0
field mean nan
field stddev nan
field sum 0
field sqrsum 0
field min nan
field max nan
attr interpolationmode  none
attr title  "ping round-trip time, histogram"
attr unit  s
bin	-INF	0
bin	-0.5	0
bin	-0.46666666666667	0
bin	-0.43333333333333	0
bin	-0.4	0
bin	-0.36666666666667	0
bin	-0.33333333333333	0
bin	-0.3	0
bin	-0.26666666666667	0
bin	-0.23333333333333	0
bin	-0.2	0
bin	-0.16666666666667	0
bin	-0.13333333333333	0
bin	-0.1	0
bin	-0.066666666666667	0
bin	-0.033333333333333	0
bin	-6.9388939039072e-018	0
bin	0.033333333333333	0
bin	0.066666666666667	0
bin	0.1	0
bin	0.13333333333333	0
bin	0.16666666666667	0
bin	0.2	0
bin	0.23333333333333	0
bin	0.26666666666667	0
bin	0.3	0
bin	0.33333333333333	0
bin	0.36666666666667	0
bin	0.4	0
bin	0.43333333333333	0
bin	0.46666666666667	0
bin	0.5	0
scalar MCProjectNetwork.host[1].networkLayer.arp 	initiatedARPResolution:count 	2
attr title  "ARP initiated resolutions, count"
scalar MCProjectNetwork.host[1].networkLayer.arp 	sentReply:count 	0
attr title  "ARP replies sent, count"
scalar MCProjectNetwork.host[1].networkLayer.arp 	sentReq:count 	3
attr title  "ARP request sent, count"
scalar MCProjectNetwork.host[1].networkLayer.arp 	failedARPResolution:count 	0
attr title  "ARP failed resolutions, count"
scalar MCProjectNetwork.host[1].networkLayer.arp 	completedARPResolution:count 	2
attr title  "ARP completed resolutions, count"
scalar MCProjectNetwork.host[1].lo0.lo 	rcvdPkFromHL:count 	0
attr interpolationmode  none
attr source  packetReceivedFromUpper
attr title  "packets received from higher layer, count"
scalar MCProjectNetwork.host[1].lo0.lo 	rcvdPkFromHL:sum(packetBytes) 	0
attr interpolationmode  none
attr source  packetReceivedFromUpper
attr title  "packets received from higher layer, sum(packetBytes)"
scalar MCProjectNetwork.host[1].lo0.lo 	passedUpPk:count 	0
attr interpolationmode  none
attr source  packetSentToUpper
attr title  "packets passed to higher layer, count"
scalar MCProjectNetwork.host[1].lo0.lo 	passedUpPk:sum(packetBytes) 	0
attr interpolationmode  none
attr source  packetSentToUpper
attr title  "packets passed to higher layer, sum(packetBytes)"
scalar MCProjectNetwork.host[1].lo0.lo 	droppedPkBitError:count 	0
attr interpolationmode  none
attr source  dropPkBitError
attr title  "packets dropped/bit error, count"
scalar MCProjectNetwork.host[1].lo0.lo 	droppedPkBitError:sum(packetBytes) 	0
attr interpolationmode  none
attr source  dropPkBitError
attr title  "packets dropped/bit error, sum(packetBytes)"
scalar MCProjectNetwork.host[1].wlan[0].mgmt 	dropPkByQueue:count 	0
attr interpolationmode  none
attr source  dropPkByQueue
attr title  "packets dropped by queue, count"
scalar MCProjectNetwork.host[1].wlan[0].mgmt 	dropPkByQueue:sum(packetBytes) 	0
attr interpolationmode  none
attr source  dropPkByQueue
attr title  "packets dropped by queue, sum(packetBytes)"
scalar MCProjectNetwork.host[1].wlan[0].mgmt 	dataQueueLen:max 	0
attr interpolationmode  sample-hold
attr title  "data queue length, max"
scalar MCProjectNetwork.host[1].wlan[0].mgmt 	dataQueueLen:timeavg 	0
attr interpolationmode  sample-hold
attr title  "data queue length, timeavg"
scalar MCProjectNetwork.host[1].wlan[0].mac 	"number of received packets" 	1
scalar MCProjectNetwork.host[1].wlan[0].mac 	"number of collisions" 	1
scalar MCProjectNetwork.host[1].wlan[0].mac 	"number of internal collisions" 	0
scalar MCProjectNetwork.host[1].wlan[0].mac 	"number of retry for AC 0" 	0
scalar MCProjectNetwork.host[1].wlan[0].mac 	"sent and received bits" 	2432
scalar MCProjectNetwork.host[1].wlan[0].mac 	"sent packet within AC 0" 	1
scalar MCProjectNetwork.host[1].wlan[0].mac 	"sent in TXOP " 	0
scalar MCProjectNetwork.host[1].wlan[0].mac 	"sentWithoutRetry AC 0" 	1
scalar MCProjectNetwork.host[1].wlan[0].mac 	"numGivenUp AC 0" 	0
scalar MCProjectNetwork.host[1].wlan[0].mac 	"numDropped AC 0" 	0
scalar MCProjectNetwork.host[1].wlan[0].mac 	rcvdPkFromHL:count 	4
attr interpolationmode  none
attr source  packetReceivedFromUpper
attr title  "packets received from higher layer, count"
scalar MCProjectNetwork.host[1].wlan[0].mac 	rcvdPkFromHL:sum(packetBytes) 	304
attr interpolationmode  none
attr source  packetReceivedFromUpper
attr title  "packets received from higher layer, sum(packetBytes)"
scalar MCProjectNetwork.host[1].wlan[0].mac 	passedUpPk:count 	14
attr interpolationmode  none
attr source  packetSentToUpper
attr title  "packets passed to higher layer, count"
scalar MCProjectNetwork.host[1].wlan[0].mac 	passedUpPk:sum(packetBytes) 	1116
attr interpolationmode  none
attr source  packetSentToUpper
attr title  "packets passed to higher layer, sum(packetBytes)"
scalar MCProjectNetwork.host[1].wlan[0].mac 	rcvdPkFromLL:count 	25
attr interpolationmode  none
attr source  packetReceivedFromLower
attr title  "packets received from lower layer, count"
scalar MCProjectNetwork.host[1].wlan[0].mac 	rcvdPkFromLL:sum(packetBytes) 	1738
attr interpolationmode  none
attr source  packetReceivedFromLower
attr title  "packets received from lower layer, sum(packetBytes)"
scalar MCProjectNetwork.host[1].wlan[0].mac 	sentDownPk:count 	5
attr interpolationmode  none
attr source  packetSentToLower
attr title  "packets sent to lower layer, count"
scalar MCProjectNetwork.host[1].wlan[0].mac 	sentDownPk:sum(packetBytes) 	318
attr interpolationmode  none
attr source  packetSentToLower
attr title  "packets sent to lower layer, sum(packetBytes)"
scalar MCProjectNetwork.host[1].wlan[0].radio 	lossRate:min 	nan
attr interpolationmode  backward-sample-hold
attr title  "packet loss rate, min"
scalar MCProjectNetwork.host[1].wlan[0].radio 	lossRate:max 	nan
attr interpolationmode  backward-sample-hold
attr title  "packet loss rate, max"
scalar MCProjectNetwork.host[1].wlan[0].radio 	lossRate:timeavg 	nan
attr interpolationmode  backward-sample-hold
attr title  "packet loss rate, timeavg"
statistic MCProjectNetwork.host[1].wlan[0].radio 	channelNo:histogram
field count 1
field mean 0
field stddev nan
field sum 0
field sqrsum 0
field min 0
field max 0
attr interpolationmode  sample-hold
attr title  "channel no, histogram"
bin	-INF	0
bin	-0.5	0
bin	-0.46666666666667	0
bin	-0.43333333333333	0
bin	-0.4	0
bin	-0.36666666666667	0
bin	-0.33333333333333	0
bin	-0.3	0
bin	-0.26666666666667	0
bin	-0.23333333333333	0
bin	-0.2	0
bin	-0.16666666666667	0
bin	-0.13333333333333	0
bin	-0.1	0
bin	-0.066666666666667	0
bin	-0.033333333333333	0
bin	-6.9388939039072e-018	1
bin	0.033333333333333	0
bin	0.066666666666667	0
bin	0.1	0
bin	0.13333333333333	0
bin	0.16666666666667	0
bin	0.2	0
bin	0.23333333333333	0
bin	0.26666666666667	0
bin	0.3	0
bin	0.33333333333333	0
bin	0.36666666666667	0
bin	0.4	0
bin	0.43333333333333	0
bin	0.46666666666667	0
bin	0.5	0
scalar MCProjectNetwork.host[1].wlan[0].radio 	radioState:count 	62
attr interpolationmode  sample-hold
attr title  "radio state (enum), count"
scalar MCProjectNetwork.host[1].wlan[0].radio 	bitrate:min 	2000000
attr interpolationmode  sample-hold
attr title  "tx bitrate, min"
attr unit  bps
scalar MCProjectNetwork.host[1].wlan[0].radio 	bitrate:max 	2000000
attr interpolationmode  sample-hold
attr title  "tx bitrate, max"
attr unit  bps
scalar MCProjectNetwork.host[1].wlan[0].radio 	bitrate:timeavg 	2000000
attr interpolationmode  sample-hold
attr title  "tx bitrate, timeavg"
attr unit  bps
scalar MCProjectNetwork.host[2].networkLayer.arp 	initiatedARPResolution:count 	0
attr title  "ARP initiated resolutions, count"
scalar MCProjectNetwork.host[2].networkLayer.arp 	sentReply:count 	0
attr title  "ARP replies sent, count"
scalar MCProjectNetwork.host[2].networkLayer.arp 	sentReq:count 	0
attr title  "ARP request sent, count"
scalar MCProjectNetwork.host[2].networkLayer.arp 	failedARPResolution:count 	0
attr title  "ARP failed resolutions, count"
scalar MCProjectNetwork.host[2].networkLayer.arp 	completedARPResolution:count 	0
attr title  "ARP completed resolutions, count"
scalar MCProjectNetwork.host[2].lo0.lo 	rcvdPkFromHL:count 	0
attr interpolationmode  none
attr source  packetReceivedFromUpper
attr title  "packets received from higher layer, count"
scalar MCProjectNetwork.host[2].lo0.lo 	rcvdPkFromHL:sum(packetBytes) 	0
attr interpolationmode  none
attr source  packetReceivedFromUpper
attr title  "packets received from higher layer, sum(packetBytes)"
scalar MCProjectNetwork.host[2].lo0.lo 	passedUpPk:count 	0
attr interpolationmode  none
attr source  packetSentToUpper
attr title  "packets passed to higher layer, count"
scalar MCProjectNetwork.host[2].lo0.lo 	passedUpPk:sum(packetBytes) 	0
attr interpolationmode  none
attr source  packetSentToUpper
attr title  "packets passed to higher layer, sum(packetBytes)"
scalar MCProjectNetwork.host[2].lo0.lo 	droppedPkBitError:count 	0
attr interpolationmode  none
attr source  dropPkBitError
attr title  "packets dropped/bit error, count"
scalar MCProjectNetwork.host[2].lo0.lo 	droppedPkBitError:sum(packetBytes) 	0
attr interpolationmode  none
attr source  dropPkBitError
attr title  "packets dropped/bit error, sum(packetBytes)"
scalar MCProjectNetwork.host[2].wlan[0].mgmt 	dropPkByQueue:count 	0
attr interpolationmode  none
attr source  dropPkByQueue
attr title  "packets dropped by queue, count"
scalar MCProjectNetwork.host[2].wlan[0].mgmt 	dropPkByQueue:sum(packetBytes) 	0
attr interpolationmode  none
attr source  dropPkByQueue
attr title  "packets dropped by queue, sum(packetBytes)"
scalar MCProjectNetwork.host[2].wlan[0].mgmt 	dataQueueLen:max 	0
attr interpolationmode  sample-hold
attr title  "data queue length, max"
scalar MCProjectNetwork.host[2].wlan[0].mgmt 	dataQueueLen:timeavg 	0
attr interpolationmode  sample-hold
attr title  "data queue length, timeavg"
scalar MCProjectNetwork.host[2].wlan[0].mac 	"number of received packets" 	0
scalar MCProjectNetwork.host[2].wlan[0].mac 	"number of collisions" 	6
scalar MCProjectNetwork.host[2].wlan[0].mac 	"number of internal collisions" 	0
scalar MCProjectNetwork.host[2].wlan[0].mac 	"number of retry for AC 0" 	0
scalar MCProjectNetwork.host[2].wlan[0].mac 	"sent and received bits" 	1312
scalar MCProjectNetwork.host[2].wlan[0].mac 	"sent packet within AC 0" 	0
scalar MCProjectNetwork.host[2].wlan[0].mac 	"sent in TXOP " 	0
scalar MCProjectNetwork.host[2].wlan[0].mac 	"sentWithoutRetry AC 0" 	0
scalar MCProjectNetwork.host[2].wlan[0].mac 	"numGivenUp AC 0" 	0
scalar MCProjectNetwork.host[2].wlan[0].mac 	"numDropped AC 0" 	0
scalar MCProjectNetwork.host[2].wlan[0].mac 	rcvdPkFromHL:count 	2
attr interpolationmode  none
attr source  packetReceivedFromUpper
attr title  "packets received from higher layer, count"
scalar MCProjectNetwork.host[2].wlan[0].mac 	rcvdPkFromHL:sum(packetBytes) 	164
attr interpolationmode  none
attr source  packetReceivedFromUpper
attr title  "packets received from higher layer, sum(packetBytes)"
scalar MCProjectNetwork.host[2].wlan[0].mac 	passedUpPk:count 	9
attr interpolationmode  none
attr source  packetSentToUpper
attr title  "packets passed to higher layer, count"
scalar MCProjectNetwork.host[2].wlan[0].mac 	passedUpPk:sum(packetBytes) 	718
attr interpolationmode  none
attr source  packetSentToUpper
attr title  "packets passed to higher layer, sum(packetBytes)"
scalar MCProjectNetwork.host[2].wlan[0].mac 	rcvdPkFromLL:count 	22
attr interpolationmode  none
attr source  packetReceivedFromLower
attr title  "packets received from lower layer, count"
scalar MCProjectNetwork.host[2].wlan[0].mac 	rcvdPkFromLL:sum(packetBytes) 	1628
attr interpolationmode  none
attr source  packetReceivedFromLower
attr title  "packets received from lower layer, sum(packetBytes)"
scalar MCProjectNetwork.host[2].wlan[0].mac 	sentDownPk:count 	2
attr interpolationmode  none
attr source  packetSentToLower
attr title  "packets sent to lower layer, count"
scalar MCProjectNetwork.host[2].wlan[0].mac 	sentDownPk:sum(packetBytes) 	164
attr interpolationmode  none
attr source  packetSentToLower
attr title  "packets sent to lower layer, sum(packetBytes)"
scalar MCProjectNetwork.host[2].wlan[0].radio 	lossRate:min 	nan
attr interpolationmode  backward-sample-hold
attr title  "packet loss rate, min"
scalar MCProjectNetwork.host[2].wlan[0].radio 	lossRate:max 	nan
attr interpolationmode  backward-sample-hold
attr title  "packet loss rate, max"
scalar MCProjectNetwork.host[2].wlan[0].radio 	lossRate:timeavg 	nan
attr interpolationmode  backward-sample-hold
attr title  "packet loss rate, timeavg"
statistic MCProjectNetwork.host[2].wlan[0].radio 	channelNo:histogram
field count 1
field mean 0
field stddev nan
field sum 0
field sqrsum 0
field min 0
field max 0
attr interpolationmode  sample-hold
attr title  "channel no, histogram"
bin	-INF	0
bin	-0.5	0
bin	-0.46666666666667	0
bin	-0.43333333333333	0
bin	-0.4	0
bin	-0.36666666666667	0
bin	-0.33333333333333	0
bin	-0.3	0
bin	-0.26666666666667	0
bin	-0.23333333333333	0
bin	-0.2	0
bin	-0.16666666666667	0
bin	-0.13333333333333	0
bin	-0.1	0
bin	-0.066666666666667	0
bin	-0.033333333333333	0
bin	-6.9388939039072e-018	1
bin	0.033333333333333	0
bin	0.066666666666667	0
bin	0.1	0
bin	0.13333333333333	0
bin	0.16666666666667	0
bin	0.2	0
bin	0.23333333333333	0
bin	0.26666666666667	0
bin	0.3	0
bin	0.33333333333333	0
bin	0.36666666666667	0
bin	0.4	0
bin	0.43333333333333	0
bin	0.46666666666667	0
bin	0.5	0
scalar MCProjectNetwork.host[2].wlan[0].radio 	radioState:count 	56
attr interpolationmode  sample-hold
attr title  "radio state (enum), count"
scalar MCProjectNetwork.host[2].wlan[0].radio 	bitrate:min 	2000000
attr interpolationmode  sample-hold
attr title  "tx bitrate, min"
attr unit  bps
scalar MCProjectNetwork.host[2].wlan[0].radio 	bitrate:max 	2000000
attr interpolationmode  sample-hold
attr title  "tx bitrate, max"
attr unit  bps
scalar MCProjectNetwork.host[2].wlan[0].radio 	bitrate:timeavg 	2000000
attr interpolationmode  sample-hold
attr title  "tx bitrate, timeavg"
attr unit  bps
scalar MCProjectNetwork.host[3].networkLayer.arp 	initiatedARPResolution:count 	0
attr title  "ARP initiated resolutions, count"
scalar MCProjectNetwork.host[3].networkLayer.arp 	sentReply:count 	0
attr title  "ARP replies sent, count"
scalar MCProjectNetwork.host[3].networkLayer.arp 	sentReq:count 	0
attr title  "ARP request sent, count"
scalar MCProjectNetwork.host[3].networkLayer.arp 	failedARPResolution:count 	0
attr title  "ARP failed resolutions, count"
scalar MCProjectNetwork.host[3].networkLayer.arp 	completedARPResolution:count 	0
attr title  "ARP completed resolutions, count"
scalar MCProjectNetwork.host[3].lo0.lo 	rcvdPkFromHL:count 	0
attr interpolationmode  none
attr source  packetReceivedFromUpper
attr title  "packets received from higher layer, count"
scalar MCProjectNetwork.host[3].lo0.lo 	rcvdPkFromHL:sum(packetBytes) 	0
attr interpolationmode  none
attr source  packetReceivedFromUpper
attr title  "packets received from higher layer, sum(packetBytes)"
scalar MCProjectNetwork.host[3].lo0.lo 	passedUpPk:count 	0
attr interpolationmode  none
attr source  packetSentToUpper
attr title  "packets passed to higher layer, count"
scalar MCProjectNetwork.host[3].lo0.lo 	passedUpPk:sum(packetBytes) 	0
attr interpolationmode  none
attr source  packetSentToUpper
attr title  "packets passed to higher layer, sum(packetBytes)"
scalar MCProjectNetwork.host[3].lo0.lo 	droppedPkBitError:count 	0
attr interpolationmode  none
attr source  dropPkBitError
attr title  "packets dropped/bit error, count"
scalar MCProjectNetwork.host[3].lo0.lo 	droppedPkBitError:sum(packetBytes) 	0
attr interpolationmode  none
attr source  dropPkBitError
attr title  "packets dropped/bit error, sum(packetBytes)"
scalar MCProjectNetwork.host[3].wlan[0].mgmt 	dropPkByQueue:count 	0
attr interpolationmode  none
attr source  dropPkByQueue
attr title  "packets dropped by queue, count"
scalar MCProjectNetwork.host[3].wlan[0].mgmt 	dropPkByQueue:sum(packetBytes) 	0
attr interpolationmode  none
attr source  dropPkByQueue
attr title  "packets dropped by queue, sum(packetBytes)"
scalar MCProjectNetwork.host[3].wlan[0].mgmt 	dataQueueLen:max 	0
attr interpolationmode  sample-hold
attr title  "data queue length, max"
scalar MCProjectNetwork.host[3].wlan[0].mgmt 	dataQueueLen:timeavg 	0
attr interpolationmode  sample-hold
attr title  "data queue length, timeavg"
scalar MCProjectNetwork.host[3].wlan[0].mac 	"number of received packets" 	0
scalar MCProjectNetwork.host[3].wlan[0].mac 	"number of collisions" 	7
scalar MCProjectNetwork.host[3].wlan[0].mac 	"number of internal collisions" 	0
scalar MCProjectNetwork.host[3].wlan[0].mac 	"number of retry for AC 0" 	0
scalar MCProjectNetwork.host[3].wlan[0].mac 	"sent and received bits" 	1248
scalar MCProjectNetwork.host[3].wlan[0].mac 	"sent packet within AC 0" 	0
scalar MCProjectNetwork.host[3].wlan[0].mac 	"sent in TXOP " 	0
scalar MCProjectNetwork.host[3].wlan[0].mac 	"sentWithoutRetry AC 0" 	0
scalar MCProjectNetwork.host[3].wlan[0].mac 	"numGivenUp AC 0" 	0
scalar MCProjectNetwork.host[3].wlan[0].mac 	"numDropped AC 0" 	0
scalar MCProjectNetwork.host[3].wlan[0].mac 	rcvdPkFromHL:count 	2
attr interpolationmode  none
attr source  packetReceivedFromUpper
attr title  "packets received from higher layer, count"
scalar MCProjectNetwork.host[3].wlan[0].mac 	rcvdPkFromHL:sum(packetBytes) 	156
attr interpolationmode  none
attr source  packetReceivedFromUpper
attr title  "packets received from higher layer, sum(packetBytes)"
scalar MCProjectNetwork.host[3].wlan[0].mac 	passedUpPk:count 	13
attr interpolationmode  none
attr source  packetSentToUpper
attr title  "packets passed to higher layer, count"
scalar MCProjectNetwork.host[3].wlan[0].mac 	passedUpPk:sum(packetBytes) 	1014
attr interpolationmode  none
attr source  packetSentToUpper
attr title  "packets passed to higher layer, sum(packetBytes)"
scalar MCProjectNetwork.host[3].wlan[0].mac 	rcvdPkFromLL:count 	31
attr interpolationmode  none
attr source  packetReceivedFromLower
attr title  "packets received from lower layer, count"
scalar MCProjectNetwork.host[3].wlan[0].mac 	rcvdPkFromLL:sum(packetBytes) 	2246
attr interpolationmode  none
attr source  packetReceivedFromLower
attr title  "packets received from lower layer, sum(packetBytes)"
scalar MCProjectNetwork.host[3].wlan[0].mac 	sentDownPk:count 	2
attr interpolationmode  none
attr source  packetSentToLower
attr title  "packets sent to lower layer, count"
scalar MCProjectNetwork.host[3].wlan[0].mac 	sentDownPk:sum(packetBytes) 	156
attr interpolationmode  none
attr source  packetSentToLower
attr title  "packets sent to lower layer, sum(packetBytes)"
scalar MCProjectNetwork.host[3].wlan[0].radio 	lossRate:min 	nan
attr interpolationmode  backward-sample-hold
attr title  "packet loss rate, min"
scalar MCProjectNetwork.host[3].wlan[0].radio 	lossRate:max 	nan
attr interpolationmode  backward-sample-hold
attr title  "packet loss rate, max"
scalar MCProjectNetwork.host[3].wlan[0].radio 	lossRate:timeavg 	nan
attr interpolationmode  backward-sample-hold
attr title  "packet loss rate, timeavg"
statistic MCProjectNetwork.host[3].wlan[0].radio 	channelNo:histogram
field count 1
field mean 0
field stddev nan
field sum 0
field sqrsum 0
field min 0
field max 0
attr interpolationmode  sample-hold
attr title  "channel no, histogram"
bin	-INF	0
bin	-0.5	0
bin	-0.46666666666667	0
bin	-0.43333333333333	0
bin	-0.4	0
bin	-0.36666666666667	0
bin	-0.33333333333333	0
bin	-0.3	0
bin	-0.26666666666667	0
bin	-0.23333333333333	0
bin	-0.2	0
bin	-0.16666666666667	0
bin	-0.13333333333333	0
bin	-0.1	0
bin	-0.066666666666667	0
bin	-0.033333333333333	0
bin	-6.9388939039072e-018	1
bin	0.033333333333333	0
bin	0.066666666666667	0
bin	0.1	0
bin	0.13333333333333	0
bin	0.16666666666667	0
bin	0.2	0
bin	0.23333333333333	0
bin	0.26666666666667	0
bin	0.3	0
bin	0.33333333333333	0
bin	0.36666666666667	0
bin	0.4	0
bin	0.43333333333333	0
bin	0.46666666666667	0
bin	0.5	0
scalar MCProjectNetwork.host[3].wlan[0].radio 	radioState:count 	67
attr interpolationmode  sample-hold
attr title  "radio state (enum), count"
scalar MCProjectNetwork.host[3].wlan[0].radio 	bitrate:min 	2000000
attr interpolationmode  sample-hold
attr title  "tx bitrate, min"
attr unit  bps
scalar MCProjectNetwork.host[3].wlan[0].radio 	bitrate:max 	2000000
attr interpolationmode  sample-hold
attr title  "tx bitrate, max"
attr unit  bps
scalar MCProjectNetwork.host[3].wlan[0].radio 	bitrate:timeavg 	2000000
attr interpolationmode  sample-hold
attr title  "tx bitrate, timeavg"
attr unit  bps
scalar MCProjectNetwork.host[4].networkLayer.arp 	initiatedARPResolution:count 	0
attr title  "ARP initiated resolutions, count"
scalar MCProjectNetwork.host[4].networkLayer.arp 	sentReply:count 	0
attr title  "ARP replies sent, count"
scalar MCProjectNetwork.host[4].networkLayer.arp 	sentReq:count 	0
attr title  "ARP request sent, count"
scalar MCProjectNetwork.host[4].networkLayer.arp 	failedARPResolution:count 	0
attr title  "ARP failed resolutions, count"
scalar MCProjectNetwork.host[4].networkLayer.arp 	completedARPResolution:count 	0
attr title  "ARP completed resolutions, count"
scalar MCProjectNetwork.host[4].lo0.lo 	rcvdPkFromHL:count 	0
attr interpolationmode  none
attr source  packetReceivedFromUpper
attr title  "packets received from higher layer, count"
scalar MCProjectNetwork.host[4].lo0.lo 	rcvdPkFromHL:sum(packetBytes) 	0
attr interpolationmode  none
attr source  packetReceivedFromUpper
attr title  "packets received from higher layer, sum(packetBytes)"
scalar MCProjectNetwork.host[4].lo0.lo 	passedUpPk:count 	0
attr interpolationmode  none
attr source  packetSentToUpper
attr title  "packets passed to higher layer, count"
scalar MCProjectNetwork.host[4].lo0.lo 	passedUpPk:sum(packetBytes) 	0
attr interpolationmode  none
attr source  packetSentToUpper
attr title  "packets passed to higher layer, sum(packetBytes)"
scalar MCProjectNetwork.host[4].lo0.lo 	droppedPkBitError:count 	0
attr interpolationmode  none
attr source  dropPkBitError
attr title  "packets dropped/bit error, count"
scalar MCProjectNetwork.host[4].lo0.lo 	droppedPkBitError:sum(packetBytes) 	0
attr interpolationmode  none
attr source  dropPkBitError
attr title  "packets dropped/bit error, sum(packetBytes)"
scalar MCProjectNetwork.host[4].wlan[0].mgmt 	dropPkByQueue:count 	0
attr interpolationmode  none
attr source  dropPkByQueue
attr title  "packets dropped by queue, count"
scalar MCProjectNetwork.host[4].wlan[0].mgmt 	dropPkByQueue:sum(packetBytes) 	0
attr interpolationmode  none
attr source  dropPkByQueue
attr title  "packets dropped by queue, sum(packetBytes)"
scalar MCProjectNetwork.host[4].wlan[0].mgmt 	dataQueueLen:max 	0
attr interpolationmode  sample-hold
attr title  "data queue length, max"
scalar MCProjectNetwork.host[4].wlan[0].mgmt 	dataQueueLen:timeavg 	0
attr interpolationmode  sample-hold
attr title  "data queue length, timeavg"
scalar MCProjectNetwork.host[4].wlan[0].mac 	"number of received packets" 	0
scalar MCProjectNetwork.host[4].wlan[0].mac 	"number of collisions" 	0
scalar MCProjectNetwork.host[4].wlan[0].mac 	"number of internal collisions" 	0
scalar MCProjectNetwork.host[4].wlan[0].mac 	"number of retry for AC 0" 	0
scalar MCProjectNetwork.host[4].wlan[0].mac 	"sent and received bits" 	1312
scalar MCProjectNetwork.host[4].wlan[0].mac 	"sent packet within AC 0" 	0
scalar MCProjectNetwork.host[4].wlan[0].mac 	"sent in TXOP " 	0
scalar MCProjectNetwork.host[4].wlan[0].mac 	"sentWithoutRetry AC 0" 	0
scalar MCProjectNetwork.host[4].wlan[0].mac 	"numGivenUp AC 0" 	0
scalar MCProjectNetwork.host[4].wlan[0].mac 	"numDropped AC 0" 	0
scalar MCProjectNetwork.host[4].wlan[0].mac 	rcvdPkFromHL:count 	2
attr interpolationmode  none
attr source  packetReceivedFromUpper
attr title  "packets received from higher layer, count"
scalar MCProjectNetwork.host[4].wlan[0].mac 	rcvdPkFromHL:sum(packetBytes) 	164
attr interpolationmode  none
attr source  packetReceivedFromUpper
attr title  "packets received from higher layer, sum(packetBytes)"
scalar MCProjectNetwork.host[4].wlan[0].mac 	passedUpPk:count 	17
attr interpolationmode  none
attr source  packetSentToUpper
attr title  "packets passed to higher layer, count"
scalar MCProjectNetwork.host[4].wlan[0].mac 	passedUpPk:sum(packetBytes) 	1326
attr interpolationmode  none
attr source  packetSentToUpper
attr title  "packets passed to higher layer, sum(packetBytes)"
scalar MCProjectNetwork.host[4].wlan[0].mac 	rcvdPkFromLL:count 	30
attr interpolationmode  none
attr source  packetReceivedFromLower
attr title  "packets received from lower layer, count"
scalar MCProjectNetwork.host[4].wlan[0].mac 	rcvdPkFromLL:sum(packetBytes) 	2048
attr interpolationmode  none
attr source  packetReceivedFromLower
attr title  "packets received from lower layer, sum(packetBytes)"
scalar MCProjectNetwork.host[4].wlan[0].mac 	sentDownPk:count 	2
attr interpolationmode  none
attr source  packetSentToLower
attr title  "packets sent to lower layer, count"
scalar MCProjectNetwork.host[4].wlan[0].mac 	sentDownPk:sum(packetBytes) 	164
attr interpolationmode  none
attr source  packetSentToLower
attr title  "packets sent to lower layer, sum(packetBytes)"
scalar MCProjectNetwork.host[4].wlan[0].radio 	lossRate:min 	nan
attr interpolationmode  backward-sample-hold
attr title  "packet loss rate, min"
scalar MCProjectNetwork.host[4].wlan[0].radio 	lossRate:max 	nan
attr interpolationmode  backward-sample-hold
attr title  "packet loss rate, max"
scalar MCProjectNetwork.host[4].wlan[0].radio 	lossRate:timeavg 	nan
attr interpolationmode  backward-sample-hold
attr title  "packet loss rate, timeavg"
statistic MCProjectNetwork.host[4].wlan[0].radio 	channelNo:histogram
field count 1
field mean 0
field stddev nan
field sum 0
field sqrsum 0
field min 0
field max 0
attr interpolationmode  sample-hold
attr title  "channel no, histogram"
bin	-INF	0
bin	-0.5	0
bin	-0.46666666666667	0
bin	-0.43333333333333	0
bin	-0.4	0
bin	-0.36666666666667	0
bin	-0.33333333333333	0
bin	-0.3	0
bin	-0.26666666666667	0
bin	-0.23333333333333	0
bin	-0.2	0
bin	-0.16666666666667	0
bin	-0.13333333333333	0
bin	-0.1	0
bin	-0.066666666666667	0
bin	-0.033333333333333	0
bin	-6.9388939039072e-018	1
bin	0.033333333333333	0
bin	0.066666666666667	0
bin	0.1	0
bin	0.13333333333333	0
bin	0.16666666666667	0
bin	0.2	0
bin	0.23333333333333	0
bin	0.26666666666667	0
bin	0.3	0
bin	0.33333333333333	0
bin	0.36666666666667	0
bin	0.4	0
bin	0.43333333333333	0
bin	0.46666666666667	0
bin	0.5	0
scalar MCProjectNetwork.host[4].wlan[0].radio 	radioState:count 	66
attr interpolationmode  sample-hold
attr title  "radio state (enum), count"
scalar MCProjectNetwork.host[4].wlan[0].radio 	bitrate:min 	2000000
attr interpolationmode  sample-hold
attr title  "tx bitrate, min"
attr unit  bps
scalar MCProjectNetwork.host[4].wlan[0].radio 	bitrate:max 	2000000
attr interpolationmode  sample-hold
attr title  "tx bitrate, max"
attr unit  bps
scalar MCProjectNetwork.host[4].wlan[0].radio 	bitrate:timeavg 	2000000
attr interpolationmode  sample-hold
attr title  "tx bitrate, timeavg"
attr unit  bps
scalar MCProjectNetwork.host[5].networkLayer.arp 	initiatedARPResolution:count 	0
attr title  "ARP initiated resolutions, count"
scalar MCProjectNetwork.host[5].networkLayer.arp 	sentReply:count 	0
attr title  "ARP replies sent, count"
scalar MCProjectNetwork.host[5].networkLayer.arp 	sentReq:count 	0
attr title  "ARP request sent, count"
scalar MCProjectNetwork.host[5].networkLayer.arp 	failedARPResolution:count 	0
attr title  "ARP failed resolutions, count"
scalar MCProjectNetwork.host[5].networkLayer.arp 	completedARPResolution:count 	0
attr title  "ARP completed resolutions, count"
scalar MCProjectNetwork.host[5].lo0.lo 	rcvdPkFromHL:count 	0
attr interpolationmode  none
attr source  packetReceivedFromUpper
attr title  "packets received from higher layer, count"
scalar MCProjectNetwork.host[5].lo0.lo 	rcvdPkFromHL:sum(packetBytes) 	0
attr interpolationmode  none
attr source  packetReceivedFromUpper
attr title  "packets received from higher layer, sum(packetBytes)"
scalar MCProjectNetwork.host[5].lo0.lo 	passedUpPk:count 	0
attr interpolationmode  none
attr source  packetSentToUpper
attr title  "packets passed to higher layer, count"
scalar MCProjectNetwork.host[5].lo0.lo 	passedUpPk:sum(packetBytes) 	0
attr interpolationmode  none
attr source  packetSentToUpper
attr title  "packets passed to higher layer, sum(packetBytes)"
scalar MCProjectNetwork.host[5].lo0.lo 	droppedPkBitError:count 	0
attr interpolationmode  none
attr source  dropPkBitError
attr title  "packets dropped/bit error, count"
scalar MCProjectNetwork.host[5].lo0.lo 	droppedPkBitError:sum(packetBytes) 	0
attr interpolationmode  none
attr source  dropPkBitError
attr title  "packets dropped/bit error, sum(packetBytes)"
scalar MCProjectNetwork.host[5].wlan[0].mgmt 	dropPkByQueue:count 	0
attr interpolationmode  none
attr source  dropPkByQueue
attr title  "packets dropped by queue, count"
scalar MCProjectNetwork.host[5].wlan[0].mgmt 	dropPkByQueue:sum(packetBytes) 	0
attr interpolationmode  none
attr source  dropPkByQueue
attr title  "packets dropped by queue, sum(packetBytes)"
scalar MCProjectNetwork.host[5].wlan[0].mgmt 	dataQueueLen:max 	0
attr interpolationmode  sample-hold
attr title  "data queue length, max"
scalar MCProjectNetwork.host[5].wlan[0].mgmt 	dataQueueLen:timeavg 	0
attr interpolationmode  sample-hold
attr title  "data queue length, timeavg"
scalar MCProjectNetwork.host[5].wlan[0].mac 	"number of received packets" 	0
scalar MCProjectNetwork.host[5].wlan[0].mac 	"number of collisions" 	1
scalar MCProjectNetwork.host[5].wlan[0].mac 	"number of internal collisions" 	0
scalar MCProjectNetwork.host[5].wlan[0].mac 	"number of retry for AC 0" 	0
scalar MCProjectNetwork.host[5].wlan[0].mac 	"sent and received bits" 	1376
scalar MCProjectNetwork.host[5].wlan[0].mac 	"sent packet within AC 0" 	0
scalar MCProjectNetwork.host[5].wlan[0].mac 	"sent in TXOP " 	0
scalar MCProjectNetwork.host[5].wlan[0].mac 	"sentWithoutRetry AC 0" 	0
scalar MCProjectNetwork.host[5].wlan[0].mac 	"numGivenUp AC 0" 	0
scalar MCProjectNetwork.host[5].wlan[0].mac 	"numDropped AC 0" 	0
scalar MCProjectNetwork.host[5].wlan[0].mac 	rcvdPkFromHL:count 	2
attr interpolationmode  none
attr source  packetReceivedFromUpper
attr title  "packets received from higher layer, count"
scalar MCProjectNetwork.host[5].wlan[0].mac 	rcvdPkFromHL:sum(packetBytes) 	172
attr interpolationmode  none
attr source  packetReceivedFromUpper
attr title  "packets received from higher layer, sum(packetBytes)"
scalar MCProjectNetwork.host[5].wlan[0].mac 	passedUpPk:count 	8
attr interpolationmode  none
attr source  packetSentToUpper
attr title  "packets passed to higher layer, count"
scalar MCProjectNetwork.host[5].wlan[0].mac 	passedUpPk:sum(packetBytes) 	656
attr interpolationmode  none
attr source  packetSentToUpper
attr title  "packets passed to higher layer, sum(packetBytes)"
scalar MCProjectNetwork.host[5].wlan[0].mac 	rcvdPkFromLL:count 	9
attr interpolationmode  none
attr source  packetReceivedFromLower
attr title  "packets received from lower layer, count"
scalar MCProjectNetwork.host[5].wlan[0].mac 	rcvdPkFromLL:sum(packetBytes) 	738
attr interpolationmode  none
attr source  packetReceivedFromLower
attr title  "packets received from lower layer, sum(packetBytes)"
scalar MCProjectNetwork.host[5].wlan[0].mac 	sentDownPk:count 	2
attr interpolationmode  none
attr source  packetSentToLower
attr title  "packets sent to lower layer, count"
scalar MCProjectNetwork.host[5].wlan[0].mac 	sentDownPk:sum(packetBytes) 	172
attr interpolationmode  none
attr source  packetSentToLower
attr title  "packets sent to lower layer, sum(packetBytes)"
scalar MCProjectNetwork.host[5].wlan[0].radio 	lossRate:min 	nan
attr interpolationmode  backward-sample-hold
attr title  "packet loss rate, min"
scalar MCProjectNetwork.host[5].wlan[0].radio 	lossRate:max 	nan
attr interpolationmode  backward-sample-hold
attr title  "packet loss rate, max"
scalar MCProjectNetwork.host[5].wlan[0].radio 	lossRate:timeavg 	nan
attr interpolationmode  backward-sample-hold
attr title  "packet loss rate, timeavg"
statistic MCProjectNetwork.host[5].wlan[0].radio 	channelNo:histogram
field count 1
field mean 0
field stddev nan
field sum 0
field sqrsum 0
field min 0
field max 0
attr interpolationmode  sample-hold
attr title  "channel no, histogram"
bin	-INF	0
bin	-0.5	0
bin	-0.46666666666667	0
bin	-0.43333333333333	0
bin	-0.4	0
bin	-0.36666666666667	0
bin	-0.33333333333333	0
bin	-0.3	0
bin	-0.26666666666667	0
bin	-0.23333333333333	0
bin	-0.2	0
bin	-0.16666666666667	0
bin	-0.13333333333333	0
bin	-0.1	0
bin	-0.066666666666667	0
bin	-0.033333333333333	0
bin	-6.9388939039072e-018	1
bin	0.033333333333333	0
bin	0.066666666666667	0
bin	0.1	0
bin	0.13333333333333	0
bin	0.16666666666667	0
bin	0.2	0
bin	0.23333333333333	0
bin	0.26666666666667	0
bin	0.3	0
bin	0.33333333333333	0
bin	0.36666666666667	0
bin	0.4	0
bin	0.43333333333333	0
bin	0.46666666666667	0
bin	0.5	0
scalar MCProjectNetwork.host[5].wlan[0].radio 	radioState:count 	33
attr interpolationmode  sample-hold
attr title  "radio state (enum), count"
scalar MCProjectNetwork.host[5].wlan[0].radio 	bitrate:min 	2000000
attr interpolationmode  sample-hold
attr title  "tx bitrate, min"
attr unit  bps
scalar MCProjectNetwork.host[5].wlan[0].radio 	bitrate:max 	2000000
attr interpolationmode  sample-hold
attr title  "tx bitrate, max"
attr unit  bps
scalar MCProjectNetwork.host[5].wlan[0].radio 	bitrate:timeavg 	2000000
attr interpolationmode  sample-hold
attr title  "tx bitrate, timeavg"
attr unit  bps
scalar MCProjectNetwork.host[6].networkLayer.arp 	initiatedARPResolution:count 	1
attr title  "ARP initiated resolutions, count"
scalar MCProjectNetwork.host[6].networkLayer.arp 	sentReply:count 	1
attr title  "ARP replies sent, count"
scalar MCProjectNetwork.host[6].networkLayer.arp 	sentReq:count 	1
attr title  "ARP request sent, count"
scalar MCProjectNetwork.host[6].networkLayer.arp 	failedARPResolution:count 	0
attr title  "ARP failed resolutions, count"
scalar MCProjectNetwork.host[6].networkLayer.arp 	completedARPResolution:count 	3
attr title  "ARP completed resolutions, count"
scalar MCProjectNetwork.host[6].lo0.lo 	rcvdPkFromHL:count 	0
attr interpolationmode  none
attr source  packetReceivedFromUpper
attr title  "packets received from higher layer, count"
scalar MCProjectNetwork.host[6].lo0.lo 	rcvdPkFromHL:sum(packetBytes) 	0
attr interpolationmode  none
attr source  packetReceivedFromUpper
attr title  "packets received from higher layer, sum(packetBytes)"
scalar MCProjectNetwork.host[6].lo0.lo 	passedUpPk:count 	0
attr interpolationmode  none
attr source  packetSentToUpper
attr title  "packets passed to higher layer, count"
scalar MCProjectNetwork.host[6].lo0.lo 	passedUpPk:sum(packetBytes) 	0
attr interpolationmode  none
attr source  packetSentToUpper
attr title  "packets passed to higher layer, sum(packetBytes)"
scalar MCProjectNetwork.host[6].lo0.lo 	droppedPkBitError:count 	0
attr interpolationmode  none
attr source  dropPkBitError
attr title  "packets dropped/bit error, count"
scalar MCProjectNetwork.host[6].lo0.lo 	droppedPkBitError:sum(packetBytes) 	0
attr interpolationmode  none
attr source  dropPkBitError
attr title  "packets dropped/bit error, sum(packetBytes)"
scalar MCProjectNetwork.host[6].wlan[0].mgmt 	dropPkByQueue:count 	0
attr interpolationmode  none
attr source  dropPkByQueue
attr title  "packets dropped by queue, count"
scalar MCProjectNetwork.host[6].wlan[0].mgmt 	dropPkByQueue:sum(packetBytes) 	0
attr interpolationmode  none
attr source  dropPkByQueue
attr title  "packets dropped by queue, sum(packetBytes)"
scalar MCProjectNetwork.host[6].wlan[0].mgmt 	dataQueueLen:max 	0
attr interpolationmode  sample-hold
attr title  "data queue length, max"
scalar MCProjectNetwork.host[6].wlan[0].mgmt 	dataQueueLen:timeavg 	0
attr interpolationmode  sample-hold
attr title  "data queue length, timeavg"
scalar MCProjectNetwork.host[6].wlan[0].mac 	"number of received packets" 	3
scalar MCProjectNetwork.host[6].wlan[0].mac 	"number of collisions" 	5
scalar MCProjectNetwork.host[6].wlan[0].mac 	"number of internal collisions" 	0
scalar MCProjectNetwork.host[6].wlan[0].mac 	"number of retry for AC 0" 	0
scalar MCProjectNetwork.host[6].wlan[0].mac 	"sent and received bits" 	3184
scalar MCProjectNetwork.host[6].wlan[0].mac 	"sent packet within AC 0" 	2
scalar MCProjectNetwork.host[6].wlan[0].mac 	"sent in TXOP " 	0
scalar MCProjectNetwork.host[6].wlan[0].mac 	"sentWithoutRetry AC 0" 	2
scalar MCProjectNetwork.host[6].wlan[0].mac 	"numGivenUp AC 0" 	0
scalar MCProjectNetwork.host[6].wlan[0].mac 	"numDropped AC 0" 	0
scalar MCProjectNetwork.host[6].wlan[0].mac 	rcvdPkFromHL:count 	7
attr interpolationmode  none
attr source  packetReceivedFromUpper
attr title  "packets received from higher layer, count"
scalar MCProjectNetwork.host[6].wlan[0].mac 	rcvdPkFromHL:sum(packetBytes) 	614
attr interpolationmode  none
attr source  packetReceivedFromUpper
attr title  "packets received from higher layer, sum(packetBytes)"
scalar MCProjectNetwork.host[6].wlan[0].mac 	passedUpPk:count 	14
attr interpolationmode  none
attr source  packetSentToUpper
attr title  "packets passed to higher layer, count"
scalar MCProjectNetwork.host[6].wlan[0].mac 	passedUpPk:sum(packetBytes) 	1156
attr interpolationmode  none
attr source  packetSentToUpper
attr title  "packets passed to higher layer, sum(packetBytes)"
scalar MCProjectNetwork.host[6].wlan[0].mac 	rcvdPkFromLL:count 	25
attr interpolationmode  none
attr source  packetReceivedFromLower
attr title  "packets received from lower layer, count"
scalar MCProjectNetwork.host[6].wlan[0].mac 	rcvdPkFromLL:sum(packetBytes) 	1790
attr interpolationmode  none
attr source  packetReceivedFromLower
attr title  "packets received from lower layer, sum(packetBytes)"
scalar MCProjectNetwork.host[6].wlan[0].mac 	sentDownPk:count 	8
attr interpolationmode  none
attr source  packetSentToLower
attr title  "packets sent to lower layer, count"
scalar MCProjectNetwork.host[6].wlan[0].mac 	sentDownPk:sum(packetBytes) 	440
attr interpolationmode  none
attr source  packetSentToLower
attr title  "packets sent to lower layer, sum(packetBytes)"
scalar MCProjectNetwork.host[6].wlan[0].radio 	lossRate:min 	nan
attr interpolationmode  backward-sample-hold
attr title  "packet loss rate, min"
scalar MCProjectNetwork.host[6].wlan[0].radio 	lossRate:max 	nan
attr interpolationmode  backward-sample-hold
attr title  "packet loss rate, max"
scalar MCProjectNetwork.host[6].wlan[0].radio 	lossRate:timeavg 	nan
attr interpolationmode  backward-sample-hold
attr title  "packet loss rate, timeavg"
statistic MCProjectNetwork.host[6].wlan[0].radio 	channelNo:histogram
field count 1
field mean 0
field stddev nan
field sum 0
field sqrsum 0
field min 0
field max 0
attr interpolationmode  sample-hold
attr title  "channel no, histogram"
bin	-INF	0
bin	-0.5	0
bin	-0.46666666666667	0
bin	-0.43333333333333	0
bin	-0.4	0
bin	-0.36666666666667	0
bin	-0.33333333333333	0
bin	-0.3	0
bin	-0.26666666666667	0
bin	-0.23333333333333	0
bin	-0.2	0
bin	-0.16666666666667	0
bin	-0.13333333333333	0
bin	-0.1	0
bin	-0.066666666666667	0
bin	-0.033333333333333	0
bin	-6.9388939039072e-018	1
bin	0.033333333333333	0
bin	0.066666666666667	0
bin	0.1	0
bin	0.13333333333333	0
bin	0.16666666666667	0
bin	0.2	0
bin	0.23333333333333	0
bin	0.26666666666667	0
bin	0.3	0
bin	0.33333333333333	0
bin	0.36666666666667	0
bin	0.4	0
bin	0.43333333333333	0
bin	0.46666666666667	0
bin	0.5	0
scalar MCProjectNetwork.host[6].wlan[0].radio 	radioState:count 	64
attr interpolationmode  sample-hold
attr title  "radio state (enum), count"
scalar MCProjectNetwork.host[6].wlan[0].radio 	bitrate:min 	2000000
attr interpolationmode  sample-hold
attr title  "tx bitrate, min"
attr unit  bps
scalar MCProjectNetwork.host[6].wlan[0].radio 	bitrate:max 	2000000
attr interpolationmode  sample-hold
attr title  "tx bitrate, max"
attr unit  bps
scalar MCProjectNetwork.host[6].wlan[0].radio 	bitrate:timeavg 	2000000
attr interpolationmode  sample-hold
attr title  "tx bitrate, timeavg"
attr unit  bps
scalar MCProjectNetwork.host[7].networkLayer.arp 	initiatedARPResolution:count 	0
attr title  "ARP initiated resolutions, count"
scalar MCProjectNetwork.host[7].networkLayer.arp 	sentReply:count 	0
attr title  "ARP replies sent, count"
scalar MCProjectNetwork.host[7].networkLayer.arp 	sentReq:count 	0
attr title  "ARP request sent, count"
scalar MCProjectNetwork.host[7].networkLayer.arp 	failedARPResolution:count 	0
attr title  "ARP failed resolutions, count"
scalar MCProjectNetwork.host[7].networkLayer.arp 	completedARPResolution:count 	0
attr title  "ARP completed resolutions, count"
scalar MCProjectNetwork.host[7].lo0.lo 	rcvdPkFromHL:count 	0
attr interpolationmode  none
attr source  packetReceivedFromUpper
attr title  "packets received from higher layer, count"
scalar MCProjectNetwork.host[7].lo0.lo 	rcvdPkFromHL:sum(packetBytes) 	0
attr interpolationmode  none
attr source  packetReceivedFromUpper
attr title  "packets received from higher layer, sum(packetBytes)"
scalar MCProjectNetwork.host[7].lo0.lo 	passedUpPk:count 	0
attr interpolationmode  none
attr source  packetSentToUpper
attr title  "packets passed to higher layer, count"
scalar MCProjectNetwork.host[7].lo0.lo 	passedUpPk:sum(packetBytes) 	0
attr interpolationmode  none
attr source  packetSentToUpper
attr title  "packets passed to higher layer, sum(packetBytes)"
scalar MCProjectNetwork.host[7].lo0.lo 	droppedPkBitError:count 	0
attr interpolationmode  none
attr source  dropPkBitError
attr title  "packets dropped/bit error, count"
scalar MCProjectNetwork.host[7].lo0.lo 	droppedPkBitError:sum(packetBytes) 	0
attr interpolationmode  none
attr source  dropPkBitError
attr title  "packets dropped/bit error, sum(packetBytes)"
scalar MCProjectNetwork.host[7].wlan[0].mgmt 	dropPkByQueue:count 	0
attr interpolationmode  none
attr source  dropPkByQueue
attr title  "packets dropped by queue, count"
scalar MCProjectNetwork.host[7].wlan[0].mgmt 	dropPkByQueue:sum(packetBytes) 	0
attr interpolationmode  none
attr source  dropPkByQueue
attr title  "packets dropped by queue, sum(packetBytes)"
scalar MCProjectNetwork.host[7].wlan[0].mgmt 	dataQueueLen:max 	0
attr interpolationmode  sample-hold
attr title  "data queue length, max"
scalar MCProjectNetwork.host[7].wlan[0].mgmt 	dataQueueLen:timeavg 	0
attr interpolationmode  sample-hold
attr title  "data queue length, timeavg"
scalar MCProjectNetwork.host[7].wlan[0].mac 	"number of received packets" 	0
scalar MCProjectNetwork.host[7].wlan[0].mac 	"number of collisions" 	1
scalar MCProjectNetwork.host[7].wlan[0].mac 	"number of internal collisions" 	0
scalar MCProjectNetwork.host[7].wlan[0].mac 	"number of retry for AC 0" 	0
scalar MCProjectNetwork.host[7].wlan[0].mac 	"sent and received bits" 	1312
scalar MCProjectNetwork.host[7].wlan[0].mac 	"sent packet within AC 0" 	0
scalar MCProjectNetwork.host[7].wlan[0].mac 	"sent in TXOP " 	0
scalar MCProjectNetwork.host[7].wlan[0].mac 	"sentWithoutRetry AC 0" 	0
scalar MCProjectNetwork.host[7].wlan[0].mac 	"numGivenUp AC 0" 	0
scalar MCProjectNetwork.host[7].wlan[0].mac 	"numDropped AC 0" 	0
scalar MCProjectNetwork.host[7].wlan[0].mac 	rcvdPkFromHL:count 	2
attr interpolationmode  none
attr source  packetReceivedFromUpper
attr title  "packets received from higher layer, count"
scalar MCProjectNetwork.host[7].wlan[0].mac 	rcvdPkFromHL:sum(packetBytes) 	164
attr interpolationmode  none
attr source  packetReceivedFromUpper
attr title  "packets received from higher layer, sum(packetBytes)"
scalar MCProjectNetwork.host[7].wlan[0].mac 	passedUpPk:count 	17
attr interpolationmode  none
attr source  packetSentToUpper
attr title  "packets passed to higher layer, count"
scalar MCProjectNetwork.host[7].wlan[0].mac 	passedUpPk:sum(packetBytes) 	1334
attr interpolationmode  none
attr source  packetSentToUpper
attr title  "packets passed to higher layer, sum(packetBytes)"
scalar MCProjectNetwork.host[7].wlan[0].mac 	rcvdPkFromLL:count 	31
attr interpolationmode  none
attr source  packetReceivedFromLower
attr title  "packets received from lower layer, count"
scalar MCProjectNetwork.host[7].wlan[0].mac 	rcvdPkFromLL:sum(packetBytes) 	2134
attr interpolationmode  none
attr source  packetReceivedFromLower
attr title  "packets received from lower layer, sum(packetBytes)"
scalar MCProjectNetwork.host[7].wlan[0].mac 	sentDownPk:count 	2
attr interpolationmode  none
attr source  packetSentToLower
attr title  "packets sent to lower layer, count"
scalar MCProjectNetwork.host[7].wlan[0].mac 	sentDownPk:sum(packetBytes) 	164
attr interpolationmode  none
attr source  packetSentToLower
attr title  "packets sent to lower layer, sum(packetBytes)"
scalar MCProjectNetwork.host[7].wlan[0].radio 	lossRate:min 	nan
attr interpolationmode  backward-sample-hold
attr title  "packet loss rate, min"
scalar MCProjectNetwork.host[7].wlan[0].radio 	lossRate:max 	nan
attr interpolationmode  backward-sample-hold
attr title  "packet loss rate, max"
scalar MCProjectNetwork.host[7].wlan[0].radio 	lossRate:timeavg 	nan
attr interpolationmode  backward-sample-hold
attr title  "packet loss rate, timeavg"
statistic MCProjectNetwork.host[7].wlan[0].radio 	channelNo:histogram
field count 1
field mean 0
field stddev nan
field sum 0
field sqrsum 0
field min 0
field max 0
attr interpolationmode  sample-hold
attr title  "channel no, histogram"
bin	-INF	0
bin	-0.5	0
bin	-0.46666666666667	0
bin	-0.43333333333333	0
bin	-0.4	0
bin	-0.36666666666667	0
bin	-0.33333333333333	0
bin	-0.3	0
bin	-0.26666666666667	0
bin	-0.23333333333333	0
bin	-0.2	0
bin	-0.16666666666667	0
bin	-0.13333333333333	0
bin	-0.1	0
bin	-0.066666666666667	0
bin	-0.033333333333333	0
bin	-6.9388939039072e-018	1
bin	0.033333333333333	0
bin	0.066666666666667	0
bin	0.1	0
bin	0.13333333333333	0
bin	0.16666666666667	0
bin	0.2	0
bin	0.23333333333333	0
bin	0.26666666666667	0
bin	0.3	0
bin	0.33333333333333	0
bin	0.36666666666667	0
bin	0.4	0
bin	0.43333333333333	0
bin	0.46666666666667	0
bin	0.5	0
scalar MCProjectNetwork.host[7].wlan[0].radio 	radioState:count 	68
attr interpolationmode  sample-hold
attr title  "radio state (enum), count"
scalar MCProjectNetwork.host[7].wlan[0].radio 	bitrate:min 	2000000
attr interpolationmode  sample-hold
attr title  "tx bitrate, min"
attr unit  bps
scalar MCProjectNetwork.host[7].wlan[0].radio 	bitrate:max 	2000000
attr interpolationmode  sample-hold
attr title  "tx bitrate, max"
attr unit  bps
scalar MCProjectNetwork.host[7].wlan[0].radio 	bitrate:timeavg 	2000000
attr interpolationmode  sample-hold
attr title  "tx bitrate, timeavg"
attr unit  bps
scalar MCProjectNetwork.host[8].networkLayer.arp 	initiatedARPResolution:count 	0
attr title  "ARP initiated resolutions, count"
scalar MCProjectNetwork.host[8].networkLayer.arp 	sentReply:count 	0
attr title  "ARP replies sent, count"
scalar MCProjectNetwork.host[8].networkLayer.arp 	sentReq:count 	0
attr title  "ARP request sent, count"
scalar MCProjectNetwork.host[8].networkLayer.arp 	failedARPResolution:count 	0
attr title  "ARP failed resolutions, count"
scalar MCProjectNetwork.host[8].networkLayer.arp 	completedARPResolution:count 	0
attr title  "ARP completed resolutions, count"
scalar MCProjectNetwork.host[8].lo0.lo 	rcvdPkFromHL:count 	0
attr interpolationmode  none
attr source  packetReceivedFromUpper
attr title  "packets received from higher layer, count"
scalar MCProjectNetwork.host[8].lo0.lo 	rcvdPkFromHL:sum(packetBytes) 	0
attr interpolationmode  none
attr source  packetReceivedFromUpper
attr title  "packets received from higher layer, sum(packetBytes)"
scalar MCProjectNetwork.host[8].lo0.lo 	passedUpPk:count 	0
attr interpolationmode  none
attr source  packetSentToUpper
attr title  "packets passed to higher layer, count"
scalar MCProjectNetwork.host[8].lo0.lo 	passedUpPk:sum(packetBytes) 	0
attr interpolationmode  none
attr source  packetSentToUpper
attr title  "packets passed to higher layer, sum(packetBytes)"
scalar MCProjectNetwork.host[8].lo0.lo 	droppedPkBitError:count 	0
attr interpolationmode  none
attr source  dropPkBitError
attr title  "packets dropped/bit error, count"
scalar MCProjectNetwork.host[8].lo0.lo 	droppedPkBitError:sum(packetBytes) 	0
attr interpolationmode  none
attr source  dropPkBitError
attr title  "packets dropped/bit error, sum(packetBytes)"
scalar MCProjectNetwork.host[8].wlan[0].mgmt 	dropPkByQueue:count 	0
attr interpolationmode  none
attr source  dropPkByQueue
attr title  "packets dropped by queue, count"
scalar MCProjectNetwork.host[8].wlan[0].mgmt 	dropPkByQueue:sum(packetBytes) 	0
attr interpolationmode  none
attr source  dropPkByQueue
attr title  "packets dropped by queue, sum(packetBytes)"
scalar MCProjectNetwork.host[8].wlan[0].mgmt 	dataQueueLen:max 	0
attr interpolationmode  sample-hold
attr title  "data queue length, max"
scalar MCProjectNetwork.host[8].wlan[0].mgmt 	dataQueueLen:timeavg 	0
attr interpolationmode  sample-hold
attr title  "data queue length, timeavg"
scalar MCProjectNetwork.host[8].wlan[0].mac 	"number of received packets" 	0
scalar MCProjectNetwork.host[8].wlan[0].mac 	"number of collisions" 	5
scalar MCProjectNetwork.host[8].wlan[0].mac 	"number of internal collisions" 	0
scalar MCProjectNetwork.host[8].wlan[0].mac 	"number of retry for AC 0" 	0
scalar MCProjectNetwork.host[8].wlan[0].mac 	"sent and received bits" 	1248
scalar MCProjectNetwork.host[8].wlan[0].mac 	"sent packet within AC 0" 	0
scalar MCProjectNetwork.host[8].wlan[0].mac 	"sent in TXOP " 	0
scalar MCProjectNetwork.host[8].wlan[0].mac 	"sentWithoutRetry AC 0" 	0
scalar MCProjectNetwork.host[8].wlan[0].mac 	"numGivenUp AC 0" 	0
scalar MCProjectNetwork.host[8].wlan[0].mac 	"numDropped AC 0" 	0
scalar MCProjectNetwork.host[8].wlan[0].mac 	rcvdPkFromHL:count 	2
attr interpolationmode  none
attr source  packetReceivedFromUpper
attr title  "packets received from higher layer, count"
scalar MCProjectNetwork.host[8].wlan[0].mac 	rcvdPkFromHL:sum(packetBytes) 	156
attr interpolationmode  none
attr source  packetReceivedFromUpper
attr title  "packets received from higher layer, sum(packetBytes)"
scalar MCProjectNetwork.host[8].wlan[0].mac 	passedUpPk:count 	13
attr interpolationmode  none
attr source  packetSentToUpper
attr title  "packets passed to higher layer, count"
scalar MCProjectNetwork.host[8].wlan[0].mac 	passedUpPk:sum(packetBytes) 	1006
attr interpolationmode  none
attr source  packetSentToUpper
attr title  "packets passed to higher layer, sum(packetBytes)"
scalar MCProjectNetwork.host[8].wlan[0].mac 	rcvdPkFromLL:count 	29
attr interpolationmode  none
attr source  packetReceivedFromLower
attr title  "packets received from lower layer, count"
scalar MCProjectNetwork.host[8].wlan[0].mac 	rcvdPkFromLL:sum(packetBytes) 	2066
attr interpolationmode  none
attr source  packetReceivedFromLower
attr title  "packets received from lower layer, sum(packetBytes)"
scalar MCProjectNetwork.host[8].wlan[0].mac 	sentDownPk:count 	2
attr interpolationmode  none
attr source  packetSentToLower
attr title  "packets sent to lower layer, count"
scalar MCProjectNetwork.host[8].wlan[0].mac 	sentDownPk:sum(packetBytes) 	156
attr interpolationmode  none
attr source  packetSentToLower
attr title  "packets sent to lower layer, sum(packetBytes)"
scalar MCProjectNetwork.host[8].wlan[0].radio 	lossRate:min 	nan
attr interpolationmode  backward-sample-hold
attr title  "packet loss rate, min"
scalar MCProjectNetwork.host[8].wlan[0].radio 	lossRate:max 	nan
attr interpolationmode  backward-sample-hold
attr title  "packet loss rate, max"
scalar MCProjectNetwork.host[8].wlan[0].radio 	lossRate:timeavg 	nan
attr interpolationmode  backward-sample-hold
attr title  "packet loss rate, timeavg"
statistic MCProjectNetwork.host[8].wlan[0].radio 	channelNo:histogram
field count 1
field mean 0
field stddev nan
field sum 0
field sqrsum 0
field min 0
field max 0
attr interpolationmode  sample-hold
attr title  "channel no, histogram"
bin	-INF	0
bin	-0.5	0
bin	-0.46666666666667	0
bin	-0.43333333333333	0
bin	-0.4	0
bin	-0.36666666666667	0
bin	-0.33333333333333	0
bin	-0.3	0
bin	-0.26666666666667	0
bin	-0.23333333333333	0
bin	-0.2	0
bin	-0.16666666666667	0
bin	-0.13333333333333	0
bin	-0.1	0
bin	-0.066666666666667	0
bin	-0.033333333333333	0
bin	-6.9388939039072e-018	1
bin	0.033333333333333	0
bin	0.066666666666667	0
bin	0.1	0
bin	0.13333333333333	0
bin	0.16666666666667	0
bin	0.2	0
bin	0.23333333333333	0
bin	0.26666666666667	0
bin	0.3	0
bin	0.33333333333333	0
bin	0.36666666666667	0
bin	0.4	0
bin	0.43333333333333	0
bin	0.46666666666667	0
bin	0.5	0
scalar MCProjectNetwork.host[8].wlan[0].radio 	radioState:count 	65
attr interpolationmode  sample-hold
attr title  "radio state (enum), count"
scalar MCProjectNetwork.host[8].wlan[0].radio 	bitrate:min 	2000000
attr interpolationmode  sample-hold
attr title  "tx bitrate, min"
attr unit  bps
scalar MCProjectNetwork.host[8].wlan[0].radio 	bitrate:max 	2000000
attr interpolationmode  sample-hold
attr title  "tx bitrate, max"
attr unit  bps
scalar MCProjectNetwork.host[8].wlan[0].radio 	bitrate:timeavg 	2000000
attr interpolationmode  sample-hold
attr title  "tx bitrate, timeavg"
attr unit  bps
scalar MCProjectNetwork.host[9].networkLayer.arp 	initiatedARPResolution:count 	0
attr title  "ARP initiated resolutions, count"
scalar MCProjectNetwork.host[9].networkLayer.arp 	sentReply:count 	0
attr title  "ARP replies sent, count"
scalar MCProjectNetwork.host[9].networkLayer.arp 	sentReq:count 	0
attr title  "ARP request sent, count"
scalar MCProjectNetwork.host[9].networkLayer.arp 	failedARPResolution:count 	0
attr title  "ARP failed resolutions, count"
scalar MCProjectNetwork.host[9].networkLayer.arp 	completedARPResolution:count 	0
attr title  "ARP completed resolutions, count"
scalar MCProjectNetwork.host[9].lo0.lo 	rcvdPkFromHL:count 	0
attr interpolationmode  none
attr source  packetReceivedFromUpper
attr title  "packets received from higher layer, count"
scalar MCProjectNetwork.host[9].lo0.lo 	rcvdPkFromHL:sum(packetBytes) 	0
attr interpolationmode  none
attr source  packetReceivedFromUpper
attr title  "packets received from higher layer, sum(packetBytes)"
scalar MCProjectNetwork.host[9].lo0.lo 	passedUpPk:count 	0
attr interpolationmode  none
attr source  packetSentToUpper
attr title  "packets passed to higher layer, count"
scalar MCProjectNetwork.host[9].lo0.lo 	passedUpPk:sum(packetBytes) 	0
attr interpolationmode  none
attr source  packetSentToUpper
attr title  "packets passed to higher layer, sum(packetBytes)"
scalar MCProjectNetwork.host[9].lo0.lo 	droppedPkBitError:count 	0
attr interpolationmode  none
attr source  dropPkBitError
attr title  "packets dropped/bit error, count"
scalar MCProjectNetwork.host[9].lo0.lo 	droppedPkBitError:sum(packetBytes) 	0
attr interpolationmode  none
attr source  dropPkBitError
attr title  "packets dropped/bit error, sum(packetBytes)"
scalar MCProjectNetwork.host[9].wlan[0].mgmt 	dropPkByQueue:count 	0
attr interpolationmode  none
attr source  dropPkByQueue
attr title  "packets dropped by queue, count"
scalar MCProjectNetwork.host[9].wlan[0].mgmt 	dropPkByQueue:sum(packetBytes) 	0
attr interpolationmode  none
attr source  dropPkByQueue
attr title  "packets dropped by queue, sum(packetBytes)"
scalar MCProjectNetwork.host[9].wlan[0].mgmt 	dataQueueLen:max 	0
attr interpolationmode  sample-hold
attr title  "data queue length, max"
scalar MCProjectNetwork.host[9].wlan[0].mgmt 	dataQueueLen:timeavg 	0
attr interpolationmode  sample-hold
attr title  "data queue length, timeavg"
scalar MCProjectNetwork.host[9].wlan[0].mac 	"number of received packets" 	0
scalar MCProjectNetwork.host[9].wlan[0].mac 	"number of collisions" 	1
scalar MCProjectNetwork.host[9].wlan[0].mac 	"number of internal collisions" 	0
scalar MCProjectNetwork.host[9].wlan[0].mac 	"number of retry for AC 0" 	0
scalar MCProjectNetwork.host[9].wlan[0].mac 	"sent and received bits" 	1312
scalar MCProjectNetwork.host[9].wlan[0].mac 	"sent packet within AC 0" 	0
scalar MCProjectNetwork.host[9].wlan[0].mac 	"sent in TXOP " 	0
scalar MCProjectNetwork.host[9].wlan[0].mac 	"sentWithoutRetry AC 0" 	0
scalar MCProjectNetwork.host[9].wlan[0].mac 	"numGivenUp AC 0" 	0
scalar MCProjectNetwork.host[9].wlan[0].mac 	"numDropped AC 0" 	0
scalar MCProjectNetwork.host[9].wlan[0].mac 	rcvdPkFromHL:count 	2
attr interpolationmode  none
attr source  packetReceivedFromUpper
attr title  "packets received from higher layer, count"
scalar MCProjectNetwork.host[9].wlan[0].mac 	rcvdPkFromHL:sum(packetBytes) 	164
attr interpolationmode  none
attr source  packetReceivedFromUpper
attr title  "packets received from higher layer, sum(packetBytes)"
scalar MCProjectNetwork.host[9].wlan[0].mac 	passedUpPk:count 	12
attr interpolationmode  none
attr source  packetSentToUpper
attr title  "packets passed to higher layer, count"
scalar MCProjectNetwork.host[9].wlan[0].mac 	passedUpPk:sum(packetBytes) 	972
attr interpolationmode  none
attr source  packetSentToUpper
attr title  "packets passed to higher layer, sum(packetBytes)"
scalar MCProjectNetwork.host[9].wlan[0].mac 	rcvdPkFromLL:count 	13
attr interpolationmode  none
attr source  packetReceivedFromLower
attr title  "packets received from lower layer, count"
scalar MCProjectNetwork.host[9].wlan[0].mac 	rcvdPkFromLL:sum(packetBytes) 	1058
attr interpolationmode  none
attr source  packetReceivedFromLower
attr title  "packets received from lower layer, sum(packetBytes)"
scalar MCProjectNetwork.host[9].wlan[0].mac 	sentDownPk:count 	2
attr interpolationmode  none
attr source  packetSentToLower
attr title  "packets sent to lower layer, count"
scalar MCProjectNetwork.host[9].wlan[0].mac 	sentDownPk:sum(packetBytes) 	164
attr interpolationmode  none
attr source  packetSentToLower
attr title  "packets sent to lower layer, sum(packetBytes)"
scalar MCProjectNetwork.host[9].wlan[0].radio 	lossRate:min 	nan
attr interpolationmode  backward-sample-hold
attr title  "packet loss rate, min"
scalar MCProjectNetwork.host[9].wlan[0].radio 	lossRate:max 	nan
attr interpolationmode  backward-sample-hold
attr title  "packet loss rate, max"
scalar MCProjectNetwork.host[9].wlan[0].radio 	lossRate:timeavg 	nan
attr interpolationmode  backward-sample-hold
attr title  "packet loss rate, timeavg"
statistic MCProjectNetwork.host[9].wlan[0].radio 	channelNo:histogram
field count 1
field mean 0
field stddev nan
field sum 0
field sqrsum 0
field min 0
field max 0
attr interpolationmode  sample-hold
attr title  "channel no, histogram"
bin	-INF	0
bin	-0.5	0
bin	-0.46666666666667	0
bin	-0.43333333333333	0
bin	-0.4	0
bin	-0.36666666666667	0
bin	-0.33333333333333	0
bin	-0.3	0
bin	-0.26666666666667	0
bin	-0.23333333333333	0
bin	-0.2	0
bin	-0.16666666666667	0
bin	-0.13333333333333	0
bin	-0.1	0
bin	-0.066666666666667	0
bin	-0.033333333333333	0
bin	-6.9388939039072e-018	1
bin	0.033333333333333	0
bin	0.066666666666667	0
bin	0.1	0
bin	0.13333333333333	0
bin	0.16666666666667	0
bin	0.2	0
bin	0.23333333333333	0
bin	0.26666666666667	0
bin	0.3	0
bin	0.33333333333333	0
bin	0.36666666666667	0
bin	0.4	0
bin	0.43333333333333	0
bin	0.46666666666667	0
bin	0.5	0
scalar MCProjectNetwork.host[9].wlan[0].radio 	radioState:count 	31
attr interpolationmode  sample-hold
attr title  "radio state (enum), count"
scalar MCProjectNetwork.host[9].wlan[0].radio 	bitrate:min 	2000000
attr interpolationmode  sample-hold
attr title  "tx bitrate, min"
attr unit  bps
scalar MCProjectNetwork.host[9].wlan[0].radio 	bitrate:max 	2000000
attr interpolationmode  sample-hold
attr title  "tx bitrate, max"
attr unit  bps
scalar MCProjectNetwork.host[9].wlan[0].radio 	bitrate:timeavg 	2000000
attr interpolationmode  sample-hold
attr title  "tx bitrate, timeavg"
attr unit  bps
scalar MCProjectNetwork.host[10].networkLayer.arp 	initiatedARPResolution:count 	0
attr title  "ARP initiated resolutions, count"
scalar MCProjectNetwork.host[10].networkLayer.arp 	sentReply:count 	0
attr title  "ARP replies sent, count"
scalar MCProjectNetwork.host[10].networkLayer.arp 	sentReq:count 	0
attr title  "ARP request sent, count"
scalar MCProjectNetwork.host[10].networkLayer.arp 	failedARPResolution:count 	0
attr title  "ARP failed resolutions, count"
scalar MCProjectNetwork.host[10].networkLayer.arp 	completedARPResolution:count 	0
attr title  "ARP completed resolutions, count"
scalar MCProjectNetwork.host[10].lo0.lo 	rcvdPkFromHL:count 	0
attr interpolationmode  none
attr source  packetReceivedFromUpper
attr title  "packets received from higher layer, count"
scalar MCProjectNetwork.host[10].lo0.lo 	rcvdPkFromHL:sum(packetBytes) 	0
attr interpolationmode  none
attr source  packetReceivedFromUpper
attr title  "packets received from higher layer, sum(packetBytes)"
scalar MCProjectNetwork.host[10].lo0.lo 	passedUpPk:count 	0
attr interpolationmode  none
attr source  packetSentToUpper
attr title  "packets passed to higher layer, count"
scalar MCProjectNetwork.host[10].lo0.lo 	passedUpPk:sum(packetBytes) 	0
attr interpolationmode  none
attr source  packetSentToUpper
attr title  "packets passed to higher layer, sum(packetBytes)"
scalar MCProjectNetwork.host[10].lo0.lo 	droppedPkBitError:count 	0
attr interpolationmode  none
attr source  dropPkBitError
attr title  "packets dropped/bit error, count"
scalar MCProjectNetwork.host[10].lo0.lo 	droppedPkBitError:sum(packetBytes) 	0
attr interpolationmode  none
attr source  dropPkBitError
attr title  "packets dropped/bit error, sum(packetBytes)"
scalar MCProjectNetwork.host[10].wlan[0].mgmt 	dropPkByQueue:count 	0
attr interpolationmode  none
attr source  dropPkByQueue
attr title  "packets dropped by queue, count"
scalar MCProjectNetwork.host[10].wlan[0].mgmt 	dropPkByQueue:sum(packetBytes) 	0
attr interpolationmode  none
attr source  dropPkByQueue
attr title  "packets dropped by queue, sum(packetBytes)"
scalar MCProjectNetwork.host[10].wlan[0].mgmt 	dataQueueLen:max 	0
attr interpolationmode  sample-hold
attr title  "data queue length, max"
scalar MCProjectNetwork.host[10].wlan[0].mgmt 	dataQueueLen:timeavg 	0
attr interpolationmode  sample-hold
attr title  "data queue length, timeavg"
scalar MCProjectNetwork.host[10].wlan[0].mac 	"number of received packets" 	0
scalar MCProjectNetwork.host[10].wlan[0].mac 	"number of collisions" 	8
scalar MCProjectNetwork.host[10].wlan[0].mac 	"number of internal collisions" 	0
scalar MCProjectNetwork.host[10].wlan[0].mac 	"number of retry for AC 0" 	0
scalar MCProjectNetwork.host[10].wlan[0].mac 	"sent and received bits" 	1248
scalar MCProjectNetwork.host[10].wlan[0].mac 	"sent packet within AC 0" 	0
scalar MCProjectNetwork.host[10].wlan[0].mac 	"sent in TXOP " 	0
scalar MCProjectNetwork.host[10].wlan[0].mac 	"sentWithoutRetry AC 0" 	0
scalar MCProjectNetwork.host[10].wlan[0].mac 	"numGivenUp AC 0" 	0
scalar MCProjectNetwork.host[10].wlan[0].mac 	"numDropped AC 0" 	0
scalar MCProjectNetwork.host[10].wlan[0].mac 	rcvdPkFromHL:count 	2
attr interpolationmode  none
attr source  packetReceivedFromUpper
attr title  "packets received from higher layer, count"
scalar MCProjectNetwork.host[10].wlan[0].mac 	rcvdPkFromHL:sum(packetBytes) 	156
attr interpolationmode  none
attr source  packetReceivedFromUpper
attr title  "packets received from higher layer, sum(packetBytes)"
scalar MCProjectNetwork.host[10].wlan[0].mac 	passedUpPk:count 	11
attr interpolationmode  none
attr source  packetSentToUpper
attr title  "packets passed to higher layer, count"
scalar MCProjectNetwork.host[10].wlan[0].mac 	passedUpPk:sum(packetBytes) 	842
attr interpolationmode  none
attr source  packetSentToUpper
attr title  "packets passed to higher layer, sum(packetBytes)"
scalar MCProjectNetwork.host[10].wlan[0].mac 	rcvdPkFromLL:count 	34
attr interpolationmode  none
attr source  packetReceivedFromLower
attr title  "packets received from lower layer, count"
scalar MCProjectNetwork.host[10].wlan[0].mac 	rcvdPkFromLL:sum(packetBytes) 	2336
attr interpolationmode  none
attr source  packetReceivedFromLower
attr title  "packets received from lower layer, sum(packetBytes)"
scalar MCProjectNetwork.host[10].wlan[0].mac 	sentDownPk:count 	2
attr interpolationmode  none
attr source  packetSentToLower
attr title  "packets sent to lower layer, count"
scalar MCProjectNetwork.host[10].wlan[0].mac 	sentDownPk:sum(packetBytes) 	156
attr interpolationmode  none
attr source  packetSentToLower
attr title  "packets sent to lower layer, sum(packetBytes)"
scalar MCProjectNetwork.host[10].wlan[0].radio 	lossRate:min 	nan
attr interpolationmode  backward-sample-hold
attr title  "packet loss rate, min"
scalar MCProjectNetwork.host[10].wlan[0].radio 	lossRate:max 	nan
attr interpolationmode  backward-sample-hold
attr title  "packet loss rate, max"
scalar MCProjectNetwork.host[10].wlan[0].radio 	lossRate:timeavg 	nan
attr interpolationmode  backward-sample-hold
attr title  "packet loss rate, timeavg"
statistic MCProjectNetwork.host[10].wlan[0].radio 	channelNo:histogram
field count 1
field mean 0
field stddev nan
field sum 0
field sqrsum 0
field min 0
field max 0
attr interpolationmode  sample-hold
attr title  "channel no, histogram"
bin	-INF	0
bin	-0.5	0
bin	-0.46666666666667	0
bin	-0.43333333333333	0
bin	-0.4	0
bin	-0.36666666666667	0
bin	-0.33333333333333	0
bin	-0.3	0
bin	-0.26666666666667	0
bin	-0.23333333333333	0
bin	-0.2	0
bin	-0.16666666666667	0
bin	-0.13333333333333	0
bin	-0.1	0
bin	-0.066666666666667	0
bin	-0.033333333333333	0
bin	-6.9388939039072e-018	1
bin	0.033333333333333	0
bin	0.066666666666667	0
bin	0.1	0
bin	0.13333333333333	0
bin	0.16666666666667	0
bin	0.2	0
bin	0.23333333333333	0
bin	0.26666666666667	0
bin	0.3	0
bin	0.33333333333333	0
bin	0.36666666666667	0
bin	0.4	0
bin	0.43333333333333	0
bin	0.46666666666667	0
bin	0.5	0
scalar MCProjectNetwork.host[10].wlan[0].radio 	radioState:count 	74
attr interpolationmode  sample-hold
attr title  "radio state (enum), count"
scalar MCProjectNetwork.host[10].wlan[0].radio 	bitrate:min 	2000000
attr interpolationmode  sample-hold
attr title  "tx bitrate, min"
attr unit  bps
scalar MCProjectNetwork.host[10].wlan[0].radio 	bitrate:max 	2000000
attr interpolationmode  sample-hold
attr title  "tx bitrate, max"
attr unit  bps
scalar MCProjectNetwork.host[10].wlan[0].radio 	bitrate:timeavg 	2000000
attr interpolationmode  sample-hold
attr title  "tx bitrate, timeavg"
attr unit  bps
scalar MCProjectNetwork.host[11].networkLayer.arp 	initiatedARPResolution:count 	0
attr title  "ARP initiated resolutions, count"
scalar MCProjectNetwork.host[11].networkLayer.arp 	sentReply:count 	0
attr title  "ARP replies sent, count"
scalar MCProjectNetwork.host[11].networkLayer.arp 	sentReq:count 	0
attr title  "ARP request sent, count"
scalar MCProjectNetwork.host[11].networkLayer.arp 	failedARPResolution:count 	0
attr title  "ARP failed resolutions, count"
scalar MCProjectNetwork.host[11].networkLayer.arp 	completedARPResolution:count 	0
attr title  "ARP completed resolutions, count"
scalar MCProjectNetwork.host[11].lo0.lo 	rcvdPkFromHL:count 	0
attr interpolationmode  none
attr source  packetReceivedFromUpper
attr title  "packets received from higher layer, count"
scalar MCProjectNetwork.host[11].lo0.lo 	rcvdPkFromHL:sum(packetBytes) 	0
attr interpolationmode  none
attr source  packetReceivedFromUpper
attr title  "packets received from higher layer, sum(packetBytes)"
scalar MCProjectNetwork.host[11].lo0.lo 	passedUpPk:count 	0
attr interpolationmode  none
attr source  packetSentToUpper
attr title  "packets passed to higher layer, count"
scalar MCProjectNetwork.host[11].lo0.lo 	passedUpPk:sum(packetBytes) 	0
attr interpolationmode  none
attr source  packetSentToUpper
attr title  "packets passed to higher layer, sum(packetBytes)"
scalar MCProjectNetwork.host[11].lo0.lo 	droppedPkBitError:count 	0
attr interpolationmode  none
attr source  dropPkBitError
attr title  "packets dropped/bit error, count"
scalar MCProjectNetwork.host[11].lo0.lo 	droppedPkBitError:sum(packetBytes) 	0
attr interpolationmode  none
attr source  dropPkBitError
attr title  "packets dropped/bit error, sum(packetBytes)"
scalar MCProjectNetwork.host[11].wlan[0].mgmt 	dropPkByQueue:count 	0
attr interpolationmode  none
attr source  dropPkByQueue
attr title  "packets dropped by queue, count"
scalar MCProjectNetwork.host[11].wlan[0].mgmt 	dropPkByQueue:sum(packetBytes) 	0
attr interpolationmode  none
attr source  dropPkByQueue
attr title  "packets dropped by queue, sum(packetBytes)"
scalar MCProjectNetwork.host[11].wlan[0].mgmt 	dataQueueLen:max 	0
attr interpolationmode  sample-hold
attr title  "data queue length, max"
scalar MCProjectNetwork.host[11].wlan[0].mgmt 	dataQueueLen:timeavg 	0
attr interpolationmode  sample-hold
attr title  "data queue length, timeavg"
scalar MCProjectNetwork.host[11].wlan[0].mac 	"number of received packets" 	0
scalar MCProjectNetwork.host[11].wlan[0].mac 	"number of collisions" 	3
scalar MCProjectNetwork.host[11].wlan[0].mac 	"number of internal collisions" 	0
scalar MCProjectNetwork.host[11].wlan[0].mac 	"number of retry for AC 0" 	0
scalar MCProjectNetwork.host[11].wlan[0].mac 	"sent and received bits" 	1248
scalar MCProjectNetwork.host[11].wlan[0].mac 	"sent packet within AC 0" 	0
scalar MCProjectNetwork.host[11].wlan[0].mac 	"sent in TXOP " 	0
scalar MCProjectNetwork.host[11].wlan[0].mac 	"sentWithoutRetry AC 0" 	0
scalar MCProjectNetwork.host[11].wlan[0].mac 	"numGivenUp AC 0" 	0
scalar MCProjectNetwork.host[11].wlan[0].mac 	"numDropped AC 0" 	0
scalar MCProjectNetwork.host[11].wlan[0].mac 	rcvdPkFromHL:count 	2
attr interpolationmode  none
attr source  packetReceivedFromUpper
attr title  "packets received from higher layer, count"
scalar MCProjectNetwork.host[11].wlan[0].mac 	rcvdPkFromHL:sum(packetBytes) 	156
attr interpolationmode  none
attr source  packetReceivedFromUpper
attr title  "packets received from higher layer, sum(packetBytes)"
scalar MCProjectNetwork.host[11].wlan[0].mac 	passedUpPk:count 	9
attr interpolationmode  none
attr source  packetSentToUpper
attr title  "packets passed to higher layer, count"
scalar MCProjectNetwork.host[11].wlan[0].mac 	passedUpPk:sum(packetBytes) 	702
attr interpolationmode  none
attr source  packetSentToUpper
attr title  "packets passed to higher layer, sum(packetBytes)"
scalar MCProjectNetwork.host[11].wlan[0].mac 	rcvdPkFromLL:count 	16
attr interpolationmode  none
attr source  packetReceivedFromLower
attr title  "packets received from lower layer, count"
scalar MCProjectNetwork.host[11].wlan[0].mac 	rcvdPkFromLL:sum(packetBytes) 	1180
attr interpolationmode  none
attr source  packetReceivedFromLower
attr title  "packets received from lower layer, sum(packetBytes)"
scalar MCProjectNetwork.host[11].wlan[0].mac 	sentDownPk:count 	2
attr interpolationmode  none
attr source  packetSentToLower
attr title  "packets sent to lower layer, count"
scalar MCProjectNetwork.host[11].wlan[0].mac 	sentDownPk:sum(packetBytes) 	156
attr interpolationmode  none
attr source  packetSentToLower
attr title  "packets sent to lower layer, sum(packetBytes)"
scalar MCProjectNetwork.host[11].wlan[0].radio 	lossRate:min 	nan
attr interpolationmode  backward-sample-hold
attr title  "packet loss rate, min"
scalar MCProjectNetwork.host[11].wlan[0].radio 	lossRate:max 	nan
attr interpolationmode  backward-sample-hold
attr title  "packet loss rate, max"
scalar MCProjectNetwork.host[11].wlan[0].radio 	lossRate:timeavg 	nan
attr interpolationmode  backward-sample-hold
attr title  "packet loss rate, timeavg"
statistic MCProjectNetwork.host[11].wlan[0].radio 	channelNo:histogram
field count 1
field mean 0
field stddev nan
field sum 0
field sqrsum 0
field min 0
field max 0
attr interpolationmode  sample-hold
attr title  "channel no, histogram"
bin	-INF	0
bin	-0.5	0
bin	-0.46666666666667	0
bin	-0.43333333333333	0
bin	-0.4	0
bin	-0.36666666666667	0
bin	-0.33333333333333	0
bin	-0.3	0
bin	-0.26666666666667	0
bin	-0.23333333333333	0
bin	-0.2	0
bin	-0.16666666666667	0
bin	-0.13333333333333	0
bin	-0.1	0
bin	-0.066666666666667	0
bin	-0.033333333333333	0
bin	-6.9388939039072e-018	1
bin	0.033333333333333	0
bin	0.066666666666667	0
bin	0.1	0
bin	0.13333333333333	0
bin	0.16666666666667	0
bin	0.2	0
bin	0.23333333333333	0
bin	0.26666666666667	0
bin	0.3	0
bin	0.33333333333333	0
bin	0.36666666666667	0
bin	0.4	0
bin	0.43333333333333	0
bin	0.46666666666667	0
bin	0.5	0
[...]
attr interpolationmode  sample-hold
attr title  "tx bitrate, max"
attr unit  bps
scalar MCProjectNetwork.host[16].wlan[0].radio 	bitrate:timeavg 	2000000
attr interpolationmode  sample-hold
attr title  "tx bitrate, timeavg"
attr unit  bps
scalar MCProjectNetwork.host[17].networkLayer.arp 	initiatedARPResolution:count 	0
attr title  "ARP initiated resolutions, count"
scalar MCProjectNetwork.host[17].networkLayer.arp 	sentReply:count 	0
attr title  "ARP replies sent, count"
scalar MCProjectNetwork.host[17].networkLayer.arp 	sentReq:count 	0
attr title  "ARP request sent, count"
scalar MCProjectNetwork.host[17].networkLayer.arp 	failedARPResolution:count 	0
attr title  "ARP failed resolutions, count"
scalar MCProjectNetwork.host[17].networkLayer.arp 	completedARPResolution:count 	0
attr title  "ARP completed resolutions, count"
scalar MCProjectNetwork.host[17].lo0.lo 	rcvdPkFromHL:count 	0
attr interpolationmode  none
attr source  packetReceivedFromUpper
attr title  "packets received from higher layer, count"
scalar MCProjectNetwork.host[17].lo0.lo 	rcvdPkFromHL:sum(packetBytes) 	0
attr interpolationmode  none
attr source  packetReceivedFromUpper
attr title  "packets received from higher layer, sum(packetBytes)"
scalar MCProjectNetwork.host[17].lo0.lo 	passedUpPk:count 	0
attr interpolationmode  none
attr source  packetSentToUpper
attr title  "packets passed to higher layer, count"
scalar MCProjectNetwork.host[17].lo0.lo 	passedUpPk:sum(packetBytes) 	0
attr interpolationmode  none
attr source  packetSentToUpper
attr title  "packets passed to higher layer, sum(packetBytes)"
scalar MCProjectNetwork.host[17].lo0.lo 	droppedPkBitError:count 	0
attr interpolationmode  none
attr source  dropPkBitError
attr title  "packets dropped/bit error, count"
scalar MCProjectNetwork.host[17].lo0.lo 	droppedPkBitError:sum(packetBytes) 	0
attr interpolationmode  none
attr source  dropPkBitError
attr title  "packets dropped/bit error, sum(packetBytes)"
scalar MCProjectNetwork.host[17].wlan[0].mgmt 	dropPkByQueue:count 	0
attr interpolationmode  none
attr source  dropPkByQueue
attr title  "packets dropped by queue, count"
scalar MCProjectNetwork.host[17].wlan[0].mgmt 	dropPkByQueue:sum(packetBytes) 	0
attr interpolationmode  none
attr source  dropPkByQueue
attr title  "packets dropped by queue, sum(packetBytes)"
scalar MCProjectNetwork.host[17].wlan[0].mgmt 	dataQueueLen:max 	0
attr interpolationmode  sample-hold
attr title  "data queue length, max"
scalar MCProjectNetwork.host[17].wlan[0].mgmt 	dataQueueLen:timeavg 	0
attr interpolationmode  sample-hold
attr title  "data queue length, timeavg"
scalar MCProjectNetwork.host[17].wlan[0].mac 	"number of received packets" 	0
scalar MCProjectNetwork.host[17].wlan[0].mac 	"number of collisions" 	7
scalar MCProjectNetwork.host[17].wlan[0].mac 	"number of internal collisions" 	0
scalar MCProjectNetwork.host[17].wlan[0].mac 	"number of retry for AC 0" 	0
scalar MCProjectNetwork.host[17].wlan[0].mac 	"sent and received bits" 	1312
scalar MCProjectNetwork.host[17].wlan[0].mac 	"sent packet within AC 0" 	0
scalar MCProjectNetwork.host[17].wlan[0].mac 	"sent in TXOP " 	0
scalar MCProjectNetwork.host[17].wlan[0].mac 	"sentWithoutRetry AC 0" 	0
scalar MCProjectNetwork.host[17].wlan[0].mac 	"numGivenUp AC 0" 	0
scalar MCProjectNetwork.host[17].wlan[0].mac 	"numDropped AC 0" 	0
scalar MCProjectNetwork.host[17].wlan[0].mac 	rcvdPkFromHL:count 	2
attr interpolationmode  none
attr source  packetReceivedFromUpper
attr title  "packets received from higher layer, count"
scalar MCProjectNetwork.host[17].wlan[0].mac 	rcvdPkFromHL:sum(packetBytes) 	164
attr interpolationmode  none
attr source  packetReceivedFromUpper
attr title  "packets received from higher layer, sum(packetBytes)"
scalar MCProjectNetwork.host[17].wlan[0].mac 	passedUpPk:count 	12
attr interpolationmode  none
attr source  packetSentToUpper
attr title  "packets passed to higher layer, count"
scalar MCProjectNetwork.host[17].wlan[0].mac 	passedUpPk:sum(packetBytes) 	924
attr interpolationmode  none
attr source  packetSentToUpper
attr title  "packets passed to higher layer, sum(packetBytes)"
scalar MCProjectNetwork.host[17].wlan[0].mac 	rcvdPkFromLL:count 	32
attr interpolationmode  none
attr source  packetReceivedFromLower
attr title  "packets received from lower layer, count"
scalar MCProjectNetwork.host[17].wlan[0].mac 	rcvdPkFromLL:sum(packetBytes) 	2208
attr interpolationmode  none
attr source  packetReceivedFromLower
attr title  "packets received from lower layer, sum(packetBytes)"
scalar MCProjectNetwork.host[17].wlan[0].mac 	sentDownPk:count 	2
attr interpolationmode  none
attr source  packetSentToLower
attr title  "packets sent to lower layer, count"
scalar MCProjectNetwork.host[17].wlan[0].mac 	sentDownPk:sum(packetBytes) 	164
attr interpolationmode  none
attr source  packetSentToLower
attr title  "packets sent to lower layer, sum(packetBytes)"
scalar MCProjectNetwork.host[17].wlan[0].radio 	lossRate:min 	nan
attr interpolationmode  backward-sample-hold
attr title  "packet loss rate, min"
scalar MCProjectNetwork.host[17].wlan[0].radio 	lossRate:max 	nan
attr interpolationmode  backward-sample-hold
attr title  "packet loss rate, max"
scalar MCProjectNetwork.host[17].wlan[0].radio 	lossRate:timeavg 	nan
attr interpolationmode  backward-sample-hold
attr title  "packet loss rate, timeavg"
statistic MCProjectNetwork.host[17].wlan[0].radio 	channelNo:histogram
field count 1
field mean 0
field stddev nan
field sum 0
field sqrsum 0
field min 0
field max 0
attr interpolationmode  sample-hold
attr title  "channel no, histogram"
bin	-INF	0
bin	-0.5	0
bin	-0.46666666666667	0
bin	-0.43333333333333	0
bin	-0.4	0
bin	-0.36666666666667	0
bin	-0.33333333333333	0
bin	-0.3	0
bin	-0.26666666666667	0
bin	-0.23333333333333	0
bin	-0.2	0
bin	-0.16666666666667	0
bin	-0.13333333333333	0
bin	-0.1	0
bin	-0.066666666666667	0
bin	-0.033333333333333	0
bin	-6.9388939039072e-018	1
bin	0.033333333333333	0
bin	0.066666666666667	0
bin	0.1	0
bin	0.13333333333333	0
bin	0.16666666666667	0
bin	0.2	0
bin	0.23333333333333	0
bin	0.26666666666667	0
bin	0.3	0
bin	0.33333333333333	0
bin	0.36666666666667	0
bin	0.4	0
bin	0.43333333333333	0
bin	0.46666666666667	0
bin	0.5	0
scalar MCProjectNetwork.host[17].wlan[0].radio 	radioState:count 	68
attr interpolationmode  sample-hold
attr title  "radio state (enum), count"
scalar MCProjectNetwork.host[17].wlan[0].radio 	bitrate:min 	2000000
attr interpolationmode  sample-hold
attr title  "tx bitrate, min"
attr unit  bps
scalar MCProjectNetwork.host[17].wlan[0].radio 	bitrate:max 	2000000
attr interpolationmode  sample-hold
attr title  "tx bitrate, max"
attr unit  bps
scalar MCProjectNetwork.host[17].wlan[0].radio 	bitrate:timeavg 	2000000
attr interpolationmode  sample-hold
attr title  "tx bitrate, timeavg"
attr unit  bps
scalar MCProjectNetwork.host[18].networkLayer.arp 	initiatedARPResolution:count 	0
attr title  "ARP initiated resolutions, count"
scalar MCProjectNetwork.host[18].networkLayer.arp 	sentReply:count 	0
attr title  "ARP replies sent, count"
scalar MCProjectNetwork.host[18].networkLayer.arp 	sentReq:count 	0
attr title  "ARP request sent, count"
scalar MCProjectNetwork.host[18].networkLayer.arp 	failedARPResolution:count 	0
attr title  "ARP failed resolutions, count"
scalar MCProjectNetwork.host[18].networkLayer.arp 	completedARPResolution:count 	0
attr title  "ARP completed resolutions, count"
scalar MCProjectNetwork.host[18].lo0.lo 	rcvdPkFromHL:count 	0
attr interpolationmode  none
attr source  packetReceivedFromUpper
attr title  "packets received from higher layer, count"
scalar MCProjectNetwork.host[18].lo0.lo 	rcvdPkFromHL:sum(packetBytes) 	0
attr interpolationmode  none
attr source  packetReceivedFromUpper
attr title  "packets received from higher layer, sum(packetBytes)"
scalar MCProjectNetwork.host[18].lo0.lo 	passedUpPk:count 	0
attr interpolationmode  none
attr source  packetSentToUpper
attr title  "packets passed to higher layer, count"
scalar MCProjectNetwork.host[18].lo0.lo 	passedUpPk:sum(packetBytes) 	0
attr interpolationmode  none
attr source  packetSentToUpper
attr title  "packets passed to higher layer, sum(packetBytes)"
scalar MCProjectNetwork.host[18].lo0.lo 	droppedPkBitError:count 	0
attr interpolationmode  none
attr source  dropPkBitError
attr title  "packets dropped/bit error, count"
scalar MCProjectNetwork.host[18].lo0.lo 	droppedPkBitError:sum(packetBytes) 	0
attr interpolationmode  none
attr source  dropPkBitError
attr title  "packets dropped/bit error, sum(packetBytes)"
scalar MCProjectNetwork.host[18].wlan[0].mgmt 	dropPkByQueue:count 	0
attr interpolationmode  none
attr source  dropPkByQueue
attr title  "packets dropped by queue, count"
scalar MCProjectNetwork.host[18].wlan[0].mgmt 	dropPkByQueue:sum(packetBytes) 	0
attr interpolationmode  none
attr source  dropPkByQueue
attr title  "packets dropped by queue, sum(packetBytes)"
scalar MCProjectNetwork.host[18].wlan[0].mgmt 	dataQueueLen:max 	0
attr interpolationmode  sample-hold
attr title  "data queue length, max"
scalar MCProjectNetwork.host[18].wlan[0].mgmt 	dataQueueLen:timeavg 	0
attr interpolationmode  sample-hold
attr title  "data queue length, timeavg"
scalar MCProjectNetwork.host[18].wlan[0].mac 	"number of received packets" 	0
scalar MCProjectNetwork.host[18].wlan[0].mac 	"number of collisions" 	0
scalar MCProjectNetwork.host[18].wlan[0].mac 	"number of internal collisions" 	0
scalar MCProjectNetwork.host[18].wlan[0].mac 	"number of retry for AC 0" 	0
scalar MCProjectNetwork.host[18].wlan[0].mac 	"sent and received bits" 	1248
scalar MCProjectNetwork.host[18].wlan[0].mac 	"sent packet within AC 0" 	0
scalar MCProjectNetwork.host[18].wlan[0].mac 	"sent in TXOP " 	0
scalar MCProjectNetwork.host[18].wlan[0].mac 	"sentWithoutRetry AC 0" 	0
scalar MCProjectNetwork.host[18].wlan[0].mac 	"numGivenUp AC 0" 	0
scalar MCProjectNetwork.host[18].wlan[0].mac 	"numDropped AC 0" 	0
scalar MCProjectNetwork.host[18].wlan[0].mac 	rcvdPkFromHL:count 	2
attr interpolationmode  none
attr source  packetReceivedFromUpper
attr title  "packets received from higher layer, count"
scalar MCProjectNetwork.host[18].wlan[0].mac 	rcvdPkFromHL:sum(packetBytes) 	156
attr interpolationmode  none
attr source  packetReceivedFromUpper
attr title  "packets received from higher layer, sum(packetBytes)"
scalar MCProjectNetwork.host[18].wlan[0].mac 	passedUpPk:count 	4
attr interpolationmode  none
attr source  packetSentToUpper
attr title  "packets passed to higher layer, count"
scalar MCProjectNetwork.host[18].wlan[0].mac 	passedUpPk:sum(packetBytes) 	304
attr interpolationmode  none
attr source  packetSentToUpper
attr title  "packets passed to higher layer, sum(packetBytes)"
scalar MCProjectNetwork.host[18].wlan[0].mac 	rcvdPkFromLL:count 	8
attr interpolationmode  none
attr source  packetReceivedFromLower
attr title  "packets received from lower layer, count"
scalar MCProjectNetwork.host[18].wlan[0].mac 	rcvdPkFromLL:sum(packetBytes) 	540
attr interpolationmode  none
attr source  packetReceivedFromLower
attr title  "packets received from lower layer, sum(packetBytes)"
scalar MCProjectNetwork.host[18].wlan[0].mac 	sentDownPk:count 	2
attr interpolationmode  none
attr source  packetSentToLower
attr title  "packets sent to lower layer, count"
scalar MCProjectNetwork.host[18].wlan[0].mac 	sentDownPk:sum(packetBytes) 	156
attr interpolationmode  none
attr source  packetSentToLower
attr title  "packets sent to lower layer, sum(packetBytes)"
scalar MCProjectNetwork.host[18].wlan[0].radio 	lossRate:min 	nan
attr interpolationmode  backward-sample-hold
attr title  "packet loss rate, min"
scalar MCProjectNetwork.host[18].wlan[0].radio 	lossRate:max 	nan
attr interpolationmode  backward-sample-hold
attr title  "packet loss rate, max"
scalar MCProjectNetwork.host[18].wlan[0].radio 	lossRate:timeavg 	nan
attr interpolationmode  backward-sample-hold
attr title  "packet loss rate, timeavg"
statistic MCProjectNetwork.host[18].wlan[0].radio 	channelNo:histogram
field count 1
field mean 0
field stddev nan
field sum 0
field sqrsum 0
field min 0
field max 0
attr interpolationmode  sample-hold
attr title  "channel no, histogram"
bin	-INF	0
bin	-0.5	0
bin	-0.46666666666667	0
bin	-0.43333333333333	0
bin	-0.4	0
bin	-0.36666666666667	0
bin	-0.33333333333333	0
bin	-0.3	0
bin	-0.26666666666667	0
bin	-0.23333333333333	0
bin	-0.2	0
bin	-0.16666666666667	0
bin	-0.13333333333333	0
bin	-0.1	0
bin	-0.066666666666667	0
bin	-0.033333333333333	0
bin	-6.9388939039072e-018	1
bin	0.033333333333333	0
bin	0.066666666666667	0
bin	0.1	0
bin	0.13333333333333	0
bin	0.16666666666667	0
bin	0.2	0
bin	0.23333333333333	0
bin	0.26666666666667	0
bin	0.3	0
bin	0.33333333333333	0
bin	0.36666666666667	0
bin	0.4	0
bin	0.43333333333333	0
bin	0.46666666666667	0
bin	0.5	0
scalar MCProjectNetwork.host[18].wlan[0].radio 	radioState:count 	27
attr interpolationmode  sample-hold
attr title  "radio state (enum), count"
scalar MCProjectNetwork.host[18].wlan[0].radio 	bitrate:min 	2000000
attr interpolationmode  sample-hold
attr title  "tx bitrate, min"
attr unit  bps
scalar MCProjectNetwork.host[18].wlan[0].radio 	bitrate:max 	2000000
attr interpolationmode  sample-hold
attr title  "tx bitrate, max"
attr unit  bps
scalar MCProjectNetwork.host[18].wlan[0].radio 	bitrate:timeavg 	2000000
attr interpolationmode  sample-hold
attr title  "tx bitrate, timeavg"
attr unit  bps
scalar MCProjectNetwork.host[19].networkLayer.arp 	initiatedARPResolution:count 	0
attr title  "ARP initiated resolutions, count"
scalar MCProjectNetwork.host[19].networkLayer.arp 	sentReply:count 	0
attr title  "ARP replies sent, count"
scalar MCProjectNetwork.host[19].networkLayer.arp 	sentReq:count 	0
attr title  "ARP request sent, count"
scalar MCProjectNetwork.host[19].networkLayer.arp 	failedARPResolution:count 	0
attr title  "ARP failed resolutions, count"
scalar MCProjectNetwork.host[19].networkLayer.arp 	completedARPResolution:count 	0
attr title  "ARP completed resolutions, count"
scalar MCProjectNetwork.host[19].lo0.lo 	rcvdPkFromHL:count 	0
attr interpolationmode  none
attr source  packetReceivedFromUpper
attr title  "packets received from higher layer, count"
scalar MCProjectNetwork.host[19].lo0.lo 	rcvdPkFromHL:sum(packetBytes) 	0
attr interpolationmode  none
attr source  packetReceivedFromUpper
attr title  "packets received from higher layer, sum(packetBytes)"
scalar MCProjectNetwork.host[19].lo0.lo 	passedUpPk:count 	0
attr interpolationmode  none
attr source  packetSentToUpper
attr title  "packets passed to higher layer, count"
scalar MCProjectNetwork.host[19].lo0.lo 	passedUpPk:sum(packetBytes) 	0
attr interpolationmode  none
attr source  packetSentToUpper
attr title  "packets passed to higher layer, sum(packetBytes)"
scalar MCProjectNetwork.host[19].lo0.lo 	droppedPkBitError:count 	0
attr interpolationmode  none
attr source  dropPkBitError
attr title  "packets dropped/bit error, count"
scalar MCProjectNetwork.host[19].lo0.lo 	droppedPkBitError:sum(packetBytes) 	0
attr interpolationmode  none
attr source  dropPkBitError
attr title  "packets dropped/bit error, sum(packetBytes)"
scalar MCProjectNetwork.host[19].wlan[0].mgmt 	dropPkByQueue:count 	0
attr interpolationmode  none
attr source  dropPkByQueue
attr title  "packets dropped by queue, count"
scalar MCProjectNetwork.host[19].wlan[0].mgmt 	dropPkByQueue:sum(packetBytes) 	0
attr interpolationmode  none
attr source  dropPkByQueue
attr title  "packets dropped by queue, sum(packetBytes)"
scalar MCProjectNetwork.host[19].wlan[0].mgmt 	dataQueueLen:max 	0
attr interpolationmode  sample-hold
attr title  "data queue length, max"
scalar MCProjectNetwork.host[19].wlan[0].mgmt 	dataQueueLen:timeavg 	0
attr interpolationmode  sample-hold
attr title  "data queue length, timeavg"
scalar MCProjectNetwork.host[19].wlan[0].mac 	"number of received packets" 	0
scalar MCProjectNetwork.host[19].wlan[0].mac 	"number of collisions" 	5
scalar MCProjectNetwork.host[19].wlan[0].mac 	"number of internal collisions" 	0
scalar MCProjectNetwork.host[19].wlan[0].mac 	"number of retry for AC 0" 	0
scalar MCProjectNetwork.host[19].wlan[0].mac 	"sent and received bits" 	1248
scalar MCProjectNetwork.host[19].wlan[0].mac 	"sent packet within AC 0" 	0
scalar MCProjectNetwork.host[19].wlan[0].mac 	"sent in TXOP " 	0
scalar MCProjectNetwork.host[19].wlan[0].mac 	"sentWithoutRetry AC 0" 	0
scalar MCProjectNetwork.host[19].wlan[0].mac 	"numGivenUp AC 0" 	0
scalar MCProjectNetwork.host[19].wlan[0].mac 	"numDropped AC 0" 	0
scalar MCProjectNetwork.host[19].wlan[0].mac 	rcvdPkFromHL:count 	2
attr interpolationmode  none
attr source  packetReceivedFromUpper
attr title  "packets received from higher layer, count"
scalar MCProjectNetwork.host[19].wlan[0].mac 	rcvdPkFromHL:sum(packetBytes) 	156
attr interpolationmode  none
attr source  packetReceivedFromUpper
attr title  "packets received from higher layer, sum(packetBytes)"
scalar MCProjectNetwork.host[19].wlan[0].mac 	passedUpPk:count 	9
attr interpolationmode  none
attr source  packetSentToUpper
attr title  "packets passed to higher layer, count"
scalar MCProjectNetwork.host[19].wlan[0].mac 	passedUpPk:sum(packetBytes) 	690
attr interpolationmode  none
attr source  packetSentToUpper
attr title  "packets passed to higher layer, sum(packetBytes)"
scalar MCProjectNetwork.host[19].wlan[0].mac 	rcvdPkFromLL:count 	25
attr interpolationmode  none
attr source  packetReceivedFromLower
attr title  "packets received from lower layer, count"
scalar MCProjectNetwork.host[19].wlan[0].mac 	rcvdPkFromLL:sum(packetBytes) 	1746
attr interpolationmode  none
attr source  packetReceivedFromLower
attr title  "packets received from lower layer, sum(packetBytes)"
scalar MCProjectNetwork.host[19].wlan[0].mac 	sentDownPk:count 	2
attr interpolationmode  none
attr source  packetSentToLower
attr title  "packets sent to lower layer, count"
scalar MCProjectNetwork.host[19].wlan[0].mac 	sentDownPk:sum(packetBytes) 	156
attr interpolationmode  none
attr source  packetSentToLower
attr title  "packets sent to lower layer, sum(packetBytes)"
scalar MCProjectNetwork.host[19].wlan[0].radio 	lossRate:min 	nan
attr interpolationmode  backward-sample-hold
attr title  "packet loss rate, min"
scalar MCProjectNetwork.host[19].wlan[0].radio 	lossRate:max 	nan
attr interpolationmode  backward-sample-hold
attr title  "packet loss rate, max"
scalar MCProjectNetwork.host[19].wlan[0].radio 	lossRate:timeavg 	nan
attr interpolationmode  backward-sample-hold
attr title  "packet loss rate, timeavg"
statistic MCProjectNetwork.host[19].wlan[0].radio 	channelNo:histogram
field count 1
field mean 0
field stddev nan
field sum 0
field sqrsum 0
field min 0
field max 0
attr interpolationmode  sample-hold
attr title  "channel no, histogram"
bin	-INF	0
bin	-0.5	0
bin	-0.46666666666667	0
bin	-0.43333333333333	0
bin	-0.4	0
bin	-0.36666666666667	0
bin	-0.33333333333333	0
bin	-0.3	0
bin	-0.26666666666667	0
bin	-0.23333333333333	0
bin	-0.2	0
bin	-0.16666666666667	0
bin	-0.13333333333333	0
bin	-0.1	0
bin	-0.066666666666667	0
bin	-0.033333333333333	0
bin	-6.9388939039072e-018	1
bin	0.033333333333333	0
bin	0.066666666666667	0
bin	0.1	0
bin	0.13333333333333	0
bin	0.16666666666667	0
bin	0.2	0
bin	0.23333333333333	0
bin	0.26666666666667	0
bin	0.3	0
bin	0.33333333333333	0
bin	0.36666666666667	0
bin	0.4	0
bin	0.43333333333333	0
bin	0.46666666666667	0
bin	0.5	0
scalar MCProjectNetwork.host[19].wlan[0].radio 	radioState:count 	67
attr interpolationmode  sample-hold
attr title  "radio state (enum), count"
scalar MCProjectNetwork.host[19].wlan[0].radio 	bitrate:min 	2000000
attr interpolationmode  sample-hold
attr title  "tx bitrate, min"
attr unit  bps
scalar MCProjectNetwork.host[19].wlan[0].radio 	bitrate:max 	2000000
attr interpolationmode  sample-hold
attr title  "tx bitrate, max"
attr unit  bps
scalar MCProjectNetwork.host[19].wlan[0].radio 	bitrate:timeavg 	2000000
attr interpolationmode  sample-hold
attr title  "tx bitrate, timeavg"
attr unit  bps
