version 2
run DYMO-0-20160415-15:35:58-524
attr configname DYMO
attr datetime 20160415-15:35:58
attr experiment DYMO
attr inifile omnetpp.ini
attr iterationvars ""
attr iterationvars2 $repetition=0
attr measurement ""
attr network MCProjectNetwork
attr processid 524
attr repetition 0
attr replication #0
attr resultdir results
attr runnumber 0
attr seedset 0

scalar MCProjectNetwork 	hackForCreateResultsFolder 	0
